#	Name: ASD05730079
#	Creating user name:	WinNT
#	Creation time:	15. 06. 2019 21:02

#	Modifying user name:	WinNT
#	Modification time:	15. 06. 2019 21:02

#	Program:	/corina/corina34_cracker 3.40 0067  02.08.2006

@<TRIPOS>MOLECULE
ASD05730079
  75   80    0    0    0
SMALL
NO_CHARGES


@<TRIPOS>ATOM
   1 C1             0.0268     1.4738    -0.0164 C.2     
   2 C2             0.0351    -0.0037    -0.0174 C.ar    
   3 C3            -0.0564    -0.7045     1.1866 C.ar    
   4 C4            -0.0488    -2.0825     1.1824 C.ar    
   5 C5             0.0499    -2.7749    -0.0193 C.ar    
   6 C6             0.1416    -2.0798    -1.2200 C.ar    
   7 C7             0.1287    -0.7018    -1.2227 C.ar    
   8 N8             0.0573    -4.1715    -0.0203 N.pl3   
   9 C9            -0.5419    -4.8649    -1.0544 C.ar    
  10 N10           -0.4242    -6.1834    -1.0907 N.ar    
  11 C11           -0.9862    -6.8842    -2.0690 C.ar    
  12 C12           -1.7099    -6.1960    -3.0669 C.ar    
  13 C13           -1.8053    -4.7987    -2.9835 C.ar    
  14 N14           -1.2193    -4.1848    -1.9728 N.ar    
  15 N15           -0.8690    -8.2505    -2.1148 N.am    
  16 C16           -1.4407    -8.9562    -3.1095 C.2     
  17 C17           -2.1979    -8.2732    -4.1606 C.2     
  18 C18           -2.3214    -6.9101    -4.1225 C.2     
  19 C19           -0.1140    -8.9488    -1.0715 C.3     
  20 C20           -1.0221    -9.9522    -0.3258 C.3     
  21 O21           -1.3269   -10.1687    -3.1351 O.2     
  22 C22           -2.8260    -9.0503    -5.2545 C.ar    
  23 C23           -1.1280     2.1888    -0.6607 C.3     
  24 C24           -2.0401    -9.5820    -6.2760 C.ar    
  25 C25           -4.7851    -9.9837    -6.2860 C.ar    
  26 C26           -3.9997   -10.5035    -7.2994 C.ar    
  27 C27           -2.6307   -10.3055    -7.2922 C.ar    
  28 C28           -4.2062    -9.2581    -5.2637 C.ar    
  29 C29            1.0273     2.1100     0.5529 C.2     
  30 C30            1.1152     3.6077     0.6170 C.3     
  31 N31            0.1983     4.2128    -0.3573 N.3     
  32 C32           -1.1537     3.6482    -0.1995 C.3     
  33 C33            0.9861    -9.8330    -1.6993 C.3     
  34 O34            1.0195   -11.0199    -0.8771 O.3     
  35 C35           -0.3631   -11.3239    -0.5913 C.3     
  36 Cl36          -5.1926    -8.6063    -3.9925 Cl      
  37 S37           -4.7454   -11.4289    -8.6003 S.o2    
  38 O38           -5.9291   -11.9588    -8.0195 O.2     
  39 C39           -5.1544   -10.1897    -9.8604 C.3     
  40 C40           -5.8160   -10.8776   -11.0562 C.3     
  41 O41           -6.1381    -9.9014   -12.0489 O.3     
  42 C42           -6.7638   -10.4422   -13.2143 C.3     
  43 O43           -3.7086   -12.2847    -9.0605 O.2     
  44 H44           -0.1327    -0.1672     2.1204 H       
  45 H45           -0.1192    -2.6252     2.1135 H       
  46 H46            0.2185    -2.6204    -2.1518 H       
  47 H47            0.1997    -0.1625    -2.1557 H       
  48 H48            0.4831    -4.6548     0.7050 H       
  49 H49           -2.3502    -4.2378    -3.7285 H       
  50 H50           -2.8757    -6.3883    -4.8885 H       
  51 H51            0.3202    -8.2341    -0.3724 H       
  52 H52           -1.0349    -9.7349     0.7423 H       
  53 H53           -2.0327    -9.9286    -0.7334 H       
  54 H54           -1.0176     2.1529    -1.7445 H       
  55 H55           -2.0607     1.7019    -0.3756 H       
  56 H56           -0.9712    -9.4277    -6.2723 H       
  57 H57           -5.8534   -10.1413    -6.2972 H       
  58 H58           -2.0226   -10.7176    -8.0839 H       
  59 H59            1.8225     1.5281     0.9951 H       
  60 H60            0.8488     3.9424     1.6196 H       
  61 H61            2.1356     3.9194     0.3942 H       
  62 H62            0.1830     5.2173    -0.2640 H       
  63 H63           -1.8591     4.2109    -0.8107 H       
  64 H64           -1.4513     3.6982     0.8479 H       
  65 H65            0.7263   -10.0900    -2.7262 H       
  66 H66            1.9482    -9.3218    -1.6670 H       
  67 H67           -0.4375   -11.9579     0.2922 H       
  68 H68           -0.8299   -11.8095    -1.4483 H       
  69 H69           -5.8403    -9.4552    -9.4385 H       
  70 H70           -4.2428    -9.6897   -10.1875 H       
  71 H71           -5.1300   -11.6121   -11.4781 H       
  72 H72           -6.7276   -11.3777   -10.7291 H       
  73 H73           -7.6951   -10.9332   -12.9319 H       
  74 H74           -6.9762    -9.6381   -13.9189 H       
  75 H75           -6.0975   -11.1677   -13.6810 H       
@<TRIPOS>BOND
   1    1    2 1
   2    1   29 2
   3    1   23 1
   4    2    3 ar
   5    2    7 ar
   6    3    4 ar
   7    3   44 1
   8    4    5 ar
   9    4   45 1
  10    5    6 ar
  11    5    8 1
  12    6    7 ar
  13    6   46 1
  14    7   47 1
  15    8    9 1
  16    8   48 1
  17    9   10 ar
  18    9   14 ar
  19   10   11 ar
  20   11   12 ar
  21   11   15 1
  22   12   13 ar
  23   12   18 1
  24   13   14 ar
  25   13   49 1
  26   15   16 am
  27   15   19 1
  28   16   17 1
  29   16   21 2
  30   17   18 2
  31   17   22 1
  32   18   50 1
  33   19   20 1
  34   19   33 1
  35   19   51 1
  36   20   35 1
  37   20   52 1
  38   20   53 1
  39   22   28 ar
  40   22   24 ar
  41   23   32 1
  42   23   54 1
  43   23   55 1
  44   24   27 ar
  45   24   56 1
  46   25   26 ar
  47   25   28 ar
  48   25   57 1
  49   26   27 ar
  50   26   37 1
  51   27   58 1
  52   28   36 1
  53   29   30 1
  54   29   59 1
  55   30   31 1
  56   30   60 1
  57   30   61 1
  58   31   32 1
  59   31   62 1
  60   32   63 1
  61   32   64 1
  62   33   34 1
  63   33   65 1
  64   33   66 1
  65   34   35 1
  66   35   67 1
  67   35   68 1
  68   37   38 2
  69   37   39 1
  70   37   43 2
  71   39   40 1
  72   39   69 1
  73   39   70 1
  74   40   41 1
  75   40   71 1
  76   40   72 1
  77   41   42 1
  78   42   73 1
  79   42   74 1
  80   42   75 1

#	End of record

