#	Name: ASD01816485
#	Creating user name:	WinNT
#	Creation time:	15. 06. 2019 19:35

#	Modifying user name:	WinNT
#	Modification time:	15. 06. 2019 19:35

#	Program:	/corina/corina34_cracker 3.40 0067  02.08.2006

@<TRIPOS>MOLECULE
ASD01816485
  62   68    0    0    0
SMALL
NO_CHARGES


@<TRIPOS>ATOM
   1 C1            -0.0167     1.3813     0.0096 C.ar    
   2 C2             0.0021    -0.0041     0.0020 C.ar    
   3 C3             1.1983    -0.6909    -0.0131 C.ar    
   4 C4             2.4015     0.0059    -0.0208 C.ar    
   5 C5             2.3790     1.4106    -0.0130 C.ar    
   6 C6             1.1663     2.0917     0.0022 C.ar    
   7 N7             3.6052    -0.6771    -0.0354 N.pl3   
   8 C8             4.7970    -0.0585    -0.0434 C.2     
   9 C9             4.8999     1.3103    -0.0371 C.2     
  10 C10            3.6670     2.1302    -0.0215 C.2     
  11 C11            5.9971     2.2731    -0.0424 C.2     
  12 N12            5.4245     3.4962    -0.0309 N.am    
  13 N13            4.0322     3.3800    -0.0185 N.2     
  14 C14            6.1228     4.7022    -0.0313 C.ar    
  15 O15            7.1911     2.0231    -0.0544 O.2     
  16 C16            3.5778    -2.1419    -0.0420 C.3     
  17 C17            3.5549    -2.6375    -1.4650 C.ar    
  18 C18            4.7425    -2.8867    -2.1280 C.ar    
  19 C19            4.7248    -3.3406    -3.4324 C.ar    
  20 C20            3.5129    -3.5469    -4.0776 C.ar    
  21 C21            2.3222    -3.2962    -3.4092 C.ar    
  22 C22            2.3463    -2.8474    -2.1031 C.ar    
  23 N23            3.4916    -4.0071    -5.4017 N.pl3   
  24 C24            2.3865    -4.2483    -6.1427 C.2     
  25 C25            2.7927    -4.6777    -7.3599 C.2     
  26 C26            4.1917    -4.7000    -7.3641 C.2     
  27 N27            4.6115    -4.2926    -6.1933 N.2     
  28 C28            7.0590     4.9660    -1.0219 C.ar    
  29 C29            7.7493     6.1616    -1.0207 C.ar    
  30 C30            7.5147     7.1056    -0.0343 C.ar    
  31 C31            6.5892     6.8608     0.9576 C.ar    
  32 C32            5.8790     5.6586     0.9663 C.ar    
  33 C33            4.8868     5.3905     2.0246 C.2     
  34 O34            4.2704     4.3424     2.0287 O.2     
  35 N35            4.6635     6.3074     2.9869 N.am    
  36 C36            3.6781     6.0412     4.0378 C.3     
  37 C37            3.8544     6.7687     5.3721 C.3     
  38 C38            2.7286     7.1783     4.4204 C.3     
  39 H39           -0.9602     1.9068     0.0169 H       
  40 H40           -0.9289    -0.5515     0.0083 H       
  41 H41            1.2003    -1.7709    -0.0185 H       
  42 H42            1.1506     3.1715     0.0077 H       
  43 H43            5.6982    -0.6535    -0.0548 H       
  44 H44            4.4657    -2.5241     0.4616 H       
  45 H45            2.6862    -2.4909     0.4787 H       
  46 H46            5.6849    -2.7260    -1.6255 H       
  47 H47            5.6526    -3.5344    -3.9500 H       
  48 H48            1.3779    -3.4554    -3.9086 H       
  49 H49            1.4204    -2.6522    -1.5826 H       
  50 H50            1.3634    -4.1216    -5.8206 H       
  51 H51            2.1504    -4.9544    -8.1830 H       
  52 H52            4.8175    -4.9978    -8.1924 H       
  53 H53            7.2477     4.2349    -1.7942 H       
  54 H54            8.4768     6.3621    -1.7932 H       
  55 H55            8.0600     8.0378    -0.0422 H       
  56 H56            6.4107     7.5998     1.7247 H       
  57 H57            5.1552     7.1435     2.9836 H       
  58 H58            3.2844     5.0252     4.0667 H       
  59 H59            3.5763     6.2315     6.2789 H       
  60 H60            4.7035     7.4454     5.4681 H       
  61 H61            2.8371     8.1245     3.8902 H       
  62 H62            1.7100     6.9105     4.7010 H       
@<TRIPOS>BOND
   1    1    2 ar
   2    1    6 ar
   3    1   39 1
   4    2    3 ar
   5    2   40 1
   6    3    4 ar
   7    3   41 1
   8    4    5 ar
   9    4    7 1
  10    5    6 ar
  11    5   10 1
  12    6   42 1
  13    7    8 1
  14    7   16 1
  15    8    9 2
  16    8   43 1
  17    9   10 1
  18    9   11 1
  19   10   13 2
  20   11   12 am
  21   11   15 2
  22   12   13 1
  23   12   14 1
  24   14   28 ar
  25   14   32 ar
  26   16   17 1
  27   16   44 1
  28   16   45 1
  29   17   18 ar
  30   17   22 ar
  31   18   19 ar
  32   18   46 1
  33   19   20 ar
  34   19   47 1
  35   20   21 ar
  36   20   23 1
  37   21   22 ar
  38   21   48 1
  39   22   49 1
  40   23   24 1
  41   23   27 1
  42   24   25 2
  43   24   50 1
  44   25   26 1
  45   25   51 1
  46   26   27 2
  47   26   52 1
  48   28   29 ar
  49   28   53 1
  50   29   30 ar
  51   29   54 1
  52   30   31 ar
  53   30   55 1
  54   31   32 ar
  55   31   56 1
  56   32   33 1
  57   33   34 2
  58   33   35 am
  59   35   36 1
  60   35   57 1
  61   36   37 1
  62   36   38 1
  63   36   58 1
  64   37   38 1
  65   37   59 1
  66   37   60 1
  67   38   61 1
  68   38   62 1

#	End of record

