#	Name: ASD03730189
#	Creating user name:	WinNT
#	Creation time:	15. 06. 2019 20:44

#	Modifying user name:	WinNT
#	Modification time:	15. 06. 2019 20:44

#	Program:	/corina/corina34_cracker 3.40 0067  02.08.2006

@<TRIPOS>MOLECULE
ASD03730189
  57   61    0    0    0
SMALL
NO_CHARGES


@<TRIPOS>ATOM
   1 O1            -0.0175     1.4361     0.0099 O.3     
   2 C2             0.0021    -0.0041     0.0020 C.3     
   3 C3             1.3458    -0.3163    -0.6708 C.3     
   4 C4             2.1586     0.9230    -0.4087 C.ar    
   5 C5             1.2614     1.9062     0.0003 C.ar    
   6 C6             1.7496     3.1681     0.3265 C.ar    
   7 C7             3.0994     3.4384     0.2351 C.ar    
   8 C8             3.9802     2.4573    -0.1806 C.ar    
   9 C9             3.5050     1.1984    -0.5019 C.ar    
  10 N10            2.1589    -2.4047    -1.1211 N.am    
  11 C11            1.9847    -1.5477    -0.0954 C.2     
  12 C12            1.1884    -0.5974    -2.1355 C.ar    
  13 C13            0.6774     0.1217    -3.1931 C.ar    
  14 C14            0.6701    -0.4253    -4.4639 C.ar    
  15 C15            1.1773    -1.6954    -4.6698 C.ar    
  16 C16            1.6901    -2.4196    -3.6138 C.ar    
  17 C17            1.7019    -1.8770    -2.3312 C.ar    
  18 O18            2.2851    -1.7344     1.0647 O.2     
  19 S19            3.7032     5.0409     0.6496 S.o2    
  20 O20            4.9380     5.1944    -0.0367 O.2     
  21 O21            2.6100     5.9349     0.4916 O.2     
  22 C22            4.0883     5.0247     2.3689 C.ar    
  23 C23            5.3543     4.6637     2.7903 C.ar    
  24 C24            5.6564     4.6509     4.1392 C.ar    
  25 C25            4.6925     4.9996     5.0667 C.ar    
  26 C26            3.4267     5.3615     4.6452 C.ar    
  27 C27            3.1259     5.3785     3.2961 C.ar    
  28 C28            2.7577    -3.7345    -0.9831 C.3     
  29 C29            1.6609    -4.7596    -0.6877 C.3     
  30 C30            2.2862    -6.1485    -0.5435 C.3     
  31 C31            1.1894    -7.1735    -0.2482 C.3     
  32 C32            1.8148    -8.5624    -0.1040 C.3     
  33 H33           -0.0222    -0.3969     1.0185 H       
  34 H34           -0.8262    -0.3990    -0.5864 H       
  35 H35            1.0682     3.9400     0.6526 H       
  36 H36            5.0359     2.6731    -0.2547 H       
  37 H37            4.1910     0.4301    -0.8267 H       
  38 H38            0.2818     1.1133    -3.0303 H       
  39 H39            0.2688     0.1381    -5.2933 H       
  40 H40            1.1714    -2.1223    -5.6618 H       
  41 H41            2.0840    -3.4110    -3.7822 H       
  42 H42            6.1074     4.3912     2.0657 H       
  43 H43            6.6453     4.3681     4.4684 H       
  44 H44            4.9283     4.9889     6.1206 H       
  45 H45            2.6735     5.6336     5.3698 H       
  46 H46            2.1380     5.6648     2.9666 H       
  47 H47            3.2653    -4.0024    -1.9097 H       
  48 H48            3.4770    -3.7259    -0.1641 H       
  49 H49            1.1532    -4.4917     0.2389 H       
  50 H50            0.9416    -4.7682    -1.5067 H       
  51 H51            2.7939    -6.4163    -1.4701 H       
  52 H52            3.0055    -6.1398     0.2754 H       
  53 H53            0.6817    -6.9056     0.6784 H       
  54 H54            0.4701    -7.1821    -1.0671 H       
  55 H55            2.3224    -8.8302    -1.0306 H       
  56 H56            2.5340    -8.5537     0.7150 H       
  57 H57            1.0334    -9.2926     0.1064 H       
@<TRIPOS>BOND
   1    1    2 1
   2    1    5 1
   3    2    3 1
   4    2   33 1
   5    2   34 1
   6    3    4 1
   7    3   11 1
   8    3   12 1
   9    4    5 ar
  10    4    9 ar
  11    5    6 ar
  12    6    7 ar
  13    6   35 1
  14    7    8 ar
  15    7   19 1
  16    8    9 ar
  17    8   36 1
  18    9   37 1
  19   10   11 am
  20   10   17 1
  21   10   28 1
  22   11   18 2
  23   12   13 ar
  24   12   17 ar
  25   13   14 ar
  26   13   38 1
  27   14   15 ar
  28   14   39 1
  29   15   16 ar
  30   15   40 1
  31   16   17 ar
  32   16   41 1
  33   19   20 2
  34   19   21 2
  35   19   22 1
  36   22   23 ar
  37   22   27 ar
  38   23   24 ar
  39   23   42 1
  40   24   25 ar
  41   24   43 1
  42   25   26 ar
  43   25   44 1
  44   26   27 ar
  45   26   45 1
  46   27   46 1
  47   28   29 1
  48   28   47 1
  49   28   48 1
  50   29   30 1
  51   29   49 1
  52   29   50 1
  53   30   31 1
  54   30   51 1
  55   30   52 1
  56   31   32 1
  57   31   53 1
  58   31   54 1
  59   32   55 1
  60   32   56 1
  61   32   57 1

#	End of record

