#	Name: ASD08830050
#	Creating user name:	WinNT
#	Creation time:	15. 06. 2019 21:19

#	Modifying user name:	WinNT
#	Modification time:	15. 06. 2019 21:19

#	Program:	/corina/corina34_cracker 3.40 0067  02.08.2006

@<TRIPOS>MOLECULE
ASD08830050
  34   35    0    0    0
SMALL
NO_CHARGES


@<TRIPOS>ATOM
   1 C1            -0.0172     1.4144     0.0098 C.ar    
   2 C2             0.0021    -0.0041     0.0020 C.ar    
   3 C3             1.1959     2.1287     0.0021 C.ar    
   4 C4             2.3769     1.4621    -0.0133 C.ar    
   5 C5             2.4108     0.0535    -0.0217 C.ar    
   6 C6             1.2315    -0.6786    -0.0139 C.ar    
   7 C7             3.7045    -0.6459    -0.0393 C.2     
   8 C8             4.9879     0.1439    -0.0483 C.3     
   9 C9             6.1781    -0.8173    -0.0663 C.3     
  10 N10            7.4292    -0.0475    -0.0751 N.3     
  11 O11            3.7384    -1.8581    -0.0465 O.2     
  12 C12            7.5990     0.6955     1.1808 C.3     
  13 C13           -1.2511     2.0843     0.0194 C.ar    
  14 C14           -1.2141    -0.7105     0.0099 C.ar    
  15 C15           -2.3907    -0.0259     0.0249 C.ar    
  16 C16           -2.4091     1.3672     0.0210 C.ar    
  17 C17            8.5827    -0.9205    -0.3304 C.3     
  18 H18            1.1860     3.2087     0.0080 H       
  19 H19            3.3029     2.0179    -0.0195 H       
  20 H20            1.2604    -1.7581    -0.0203 H       
  21 H21            5.0187     0.7770    -0.9350 H       
  22 H22            5.0375     0.7668     0.8448 H       
  23 H23            6.1473    -1.4504     0.8205 H       
  24 H24            6.1285    -1.4403    -0.9594 H       
  25 H25            7.6250    -0.0042     2.0162 H       
  26 H26            8.5329     1.2566     1.1475 H       
  27 H27            6.7651     1.3853     1.3104 H       
  28 H28           -1.2819     3.1638     0.0257 H       
  29 H29           -1.2146    -1.7904     0.0038 H       
  30 H30           -3.3233    -0.5705     0.0306 H       
  31 H31           -3.3559     1.8865     0.0335 H       
  32 H32            8.4640    -1.4054    -1.2993 H       
  33 H33            9.4958    -0.3251    -0.3316 H       
  34 H34            8.6444    -1.6787     0.4503 H       
@<TRIPOS>BOND
   1    1    2 ar
   2    1    3 ar
   3    1   13 ar
   4    2   14 ar
   5    2    6 ar
   6    3    4 ar
   7    3   18 1
   8    4    5 ar
   9    4   19 1
  10    5    6 ar
  11    5    7 1
  12    6   20 1
  13    7    8 1
  14    7   11 2
  15    8    9 1
  16    8   21 1
  17    8   22 1
  18    9   10 1
  19    9   23 1
  20    9   24 1
  21   10   12 1
  22   10   17 1
  23   12   25 1
  24   12   26 1
  25   12   27 1
  26   13   16 ar
  27   13   28 1
  28   14   15 ar
  29   14   29 1
  30   15   16 ar
  31   15   30 1
  32   16   31 1
  33   17   32 1
  34   17   33 1
  35   17   34 1

#	End of record

