#	Name: ASD02500120
#	Creating user name:	WinNT
#	Creation time:	15. 06. 2019 20:22

#	Modifying user name:	WinNT
#	Modification time:	15. 06. 2019 20:22

#	Program:	/corina/corina34_cracker 3.40 0067  02.08.2006

@<TRIPOS>MOLECULE
ASD02500120
  59   63    0    0    0
SMALL
NO_CHARGES


@<TRIPOS>ATOM
   1 N1            -3.9522     5.7069    -1.6376 N.ar    
   2 C2            -5.1298     6.2577    -1.8054 C.ar    
   3 C3            -6.1568     6.0893    -0.8790 C.ar    
   4 C4            -5.9489     5.3332     0.2392 C.ar    
   5 C5            -4.6832     4.7427     0.4159 C.ar    
   6 C6            -4.3954     3.9529     1.5402 C.ar    
   7 C7            -3.1585     3.3994     1.6749 C.ar    
   8 C8            -2.1738     3.6067     0.7115 C.ar    
   9 C9            -2.4185     4.3668    -0.3907 C.ar    
  10 C10           -3.6831     4.9551    -0.5654 C.ar    
  11 S11           -1.1547     4.6133    -1.5934 S.o2    
  12 O12           -1.1206     6.0088    -1.8595 O.2     
  13 O13           -0.0238     3.8801    -1.1432 O.2     
  14 N14           -1.6592     3.8829    -2.9914 N.am    
  15 C15           -1.8335     2.5040    -3.0317 C.ar    
  16 C16           -2.9854     1.9657    -3.5985 C.ar    
  17 C17           -3.1608     0.6014    -3.6399 C.ar    
  18 C18           -2.1807    -0.2441    -3.1119 C.ar    
  19 C19           -1.0251     0.2995    -2.5433 C.ar    
  20 C20           -0.8530     1.6645    -2.5101 C.ar    
  21 C21           -2.3658    -1.7071    -3.1541 C.2     
  22 O22           -1.4351    -2.4292    -3.4558 O.2     
  23 N23           -3.5664    -2.2432    -2.8584 N.am    
  24 C24           -3.7419    -3.7014    -2.8060 C.3     
  25 C25           -4.3169    -4.0768    -1.4346 C.3     
  26 N26           -5.4739    -3.2138    -1.1582 N.am    
  27 C27           -5.2984    -1.7556    -1.2107 C.3     
  28 C28           -4.7221    -1.3802    -2.5765 C.3     
  29 C29           -6.6745    -3.7500    -0.8625 C.2     
  30 C30           -7.8043    -2.8712    -0.4799 C.ar    
  31 C31           -9.1154    -3.1838    -0.8514 C.ar    
  32 C32          -10.1389    -2.3366    -0.4729 C.ar    
  33 N33           -9.8920    -1.2476     0.2275 N.ar    
  34 C34           -8.6713    -0.9161     0.5982 C.ar    
  35 C35           -7.5896    -1.7094     0.2677 C.ar    
  36 O36           -6.8304    -4.9541    -0.9096 O.2     
  37 H37           -5.3085     6.8584    -2.6850 H       
  38 H38           -7.1162     6.5566    -1.0447 H       
  39 H39           -6.7336     5.1924     0.9678 H       
  40 H40           -5.1504     3.7855     2.2941 H       
  41 H41           -2.9380     2.7918     2.5402 H       
  42 H42           -1.2003     3.1574     0.8415 H       
  43 H43           -1.8332     4.4171    -3.7822 H       
  44 H44           -3.7424     2.6194    -4.0059 H       
  45 H45           -4.0548     0.1844    -4.0794 H       
  46 H46           -0.2663    -0.3511    -2.1343 H       
  47 H47            0.0417     2.0849    -2.0753 H       
  48 H48           -4.4311    -4.0153    -3.5900 H       
  49 H49           -2.7781    -4.1911    -2.9450 H       
  50 H50           -4.6326    -5.1201    -1.4434 H       
  51 H51           -3.5579    -3.9282    -0.6665 H       
  52 H52           -6.2622    -1.2659    -1.0716 H       
  53 H53           -4.6093    -1.4417    -0.4267 H       
  54 H54           -4.4054    -0.3372    -2.5641 H       
  55 H55           -5.4826    -1.5250    -3.3438 H       
  56 H56           -9.3249    -4.0740    -1.4259 H       
  57 H57          -11.1550    -2.5694    -0.7551 H       
  58 H58           -8.5151    -0.0143     1.1716 H       
  59 H59           -6.5926    -1.4341     0.5787 H       
@<TRIPOS>BOND
   1    1    2 ar
   2    1   10 ar
   3    2    3 ar
   4    2   37 1
   5    3    4 ar
   6    3   38 1
   7    4    5 ar
   8    4   39 1
   9    5    6 ar
  10    5   10 ar
  11    6    7 ar
  12    6   40 1
  13    7    8 ar
  14    7   41 1
  15    8    9 ar
  16    8   42 1
  17    9   10 ar
  18    9   11 1
  19   11   12 2
  20   11   13 2
  21   11   14 am
  22   14   15 1
  23   14   43 1
  24   15   16 ar
  25   15   20 ar
  26   16   17 ar
  27   16   44 1
  28   17   18 ar
  29   17   45 1
  30   18   19 ar
  31   18   21 1
  32   19   20 ar
  33   19   46 1
  34   20   47 1
  35   21   22 2
  36   21   23 am
  37   23   24 1
  38   23   28 1
  39   24   25 1
  40   24   48 1
  41   24   49 1
  42   25   26 1
  43   25   50 1
  44   25   51 1
  45   26   27 1
  46   26   29 am
  47   27   28 1
  48   27   52 1
  49   27   53 1
  50   28   54 1
  51   28   55 1
  52   29   30 1
  53   29   36 2
  54   30   31 ar
  55   30   35 ar
  56   31   32 ar
  57   31   56 1
  58   32   33 ar
  59   32   57 1
  60   33   34 ar
  61   34   35 ar
  62   34   58 1
  63   35   59 1

#	End of record

