#	Name: ASD01917574
#	Creating user name:	WinNT
#	Creation time:	15. 06. 2019 20:09

#	Modifying user name:	WinNT
#	Modification time:	15. 06. 2019 20:09

#	Program:	/corina/corina34_cracker 3.40 0067  02.08.2006

@<TRIPOS>MOLECULE
ASD01917574
  40   41    0    0    0
SMALL
NO_CHARGES


@<TRIPOS>ATOM
   1 C1            -0.0161     1.3365     0.0094 C.2     
   2 N2             0.0021    -0.0041     0.0020 N.2     
   3 C3             1.1337    -0.6639    -0.0124 C.2     
   4 C4             2.3626     0.0354    -0.0199 C.2     
   5 C5             2.3509     1.4037    -0.0124 C.2     
   6 N6             1.1526     2.0545     0.0021 N.pl3   
   7 N7             0.8163     3.4131     0.0126 N.2     
   8 C8            -0.4927     3.5259     0.0257 C.2     
   9 C9            -1.0549     2.2579     0.0186 C.2     
  10 C10            3.6035    -0.6792    -0.0347 C.1     
  11 C11            4.6209    -1.2650    -0.0468 C.1     
  12 Si12           6.2673    -2.2131    -0.0664 Si      
  13 C13            7.6819    -1.0008    -0.0730 C.3     
  14 C14            6.3809    -3.2917     1.4484 C.3     
  15 C15            6.3535    -3.2763    -1.5937 C.3     
  16 C16           -1.2594     4.8232     0.0405 C.3     
  17 C17           -1.8265     5.0645     1.4409 C.3     
  18 C18           -0.3231     5.9732    -0.3357 C.3     
  19 C19           -2.4070     4.7489    -0.9686 C.3     
  20 H20            1.1279    -1.7439    -0.0181 H       
  21 H21            3.2767     1.9599    -0.0179 H       
  22 H22           -2.1103     2.0286     0.0216 H       
  23 H23            7.6315    -0.3787     0.8206 H       
  24 H24            8.6265    -1.5447    -0.0842 H       
  25 H25            7.6155    -0.3697    -0.9592 H       
  26 H26            5.5532    -4.0010     1.4522 H       
  27 H27            7.3254    -3.8356     1.4371 H       
  28 H28            6.3304    -2.6696     2.3420 H       
  29 H29            6.2871    -2.6452    -2.4800 H       
  30 H30            7.2980    -3.8202    -1.6050 H       
  31 H31            5.5258    -3.9856    -1.5899 H       
  32 H32           -1.0089     5.1174     2.1598 H       
  33 H33           -2.3810     6.0029     1.4516 H       
  34 H34           -2.4935     4.2452     1.7089 H       
  35 H35            0.0809     5.8013    -1.3334 H       
  36 H36           -0.8776     6.9116    -0.3250 H       
  37 H37            0.4945     6.0262     0.3832 H       
  38 H38           -3.0741     3.9296    -0.7006 H       
  39 H39           -2.9615     5.6873    -0.9579 H       
  40 H40           -2.0030     4.5770    -1.9663 H       
@<TRIPOS>BOND
   1    1    2 1
   2    1    6 1
   3    1    9 2
   4    2    3 2
   5    3    4 1
   6    3   20 1
   7    4    5 2
   8    4   10 1
   9    5    6 1
  10    5   21 1
  11    6    7 1
  12    7    8 2
  13    8    9 1
  14    8   16 1
  15    9   22 1
  16   10   11 3
  17   11   12 1
  18   12   13 1
  19   12   14 1
  20   12   15 1
  21   13   23 1
  22   13   24 1
  23   13   25 1
  24   14   26 1
  25   14   27 1
  26   14   28 1
  27   15   29 1
  28   15   30 1
  29   15   31 1
  30   16   17 1
  31   16   19 1
  32   16   18 1
  33   17   32 1
  34   17   33 1
  35   17   34 1
  36   18   35 1
  37   18   36 1
  38   18   37 1
  39   19   38 1
  40   19   39 1
  41   19   40 1

#	End of record

