#	Name: ASD03930096
#	Creating user name:	WinNT
#	Creation time:	15. 06. 2019 20:47

#	Modifying user name:	WinNT
#	Modification time:	15. 06. 2019 20:47

#	Program:	/corina/corina34_cracker 3.40 0067  02.08.2006

@<TRIPOS>MOLECULE
ASD03930096
  35   37    0    0    0
SMALL
NO_CHARGES


@<TRIPOS>ATOM
   1 C1             3.5758     3.7918     0.5896 C.ar    
   2 C2             4.7587     4.4975     0.5627 C.ar    
   3 C3             4.8208     5.7338    -0.0665 C.ar    
   4 C4             3.6836     6.2661    -0.6752 C.ar    
   5 C5             2.4950     5.5629    -0.6518 C.ar    
   6 C6             2.4336     4.3194    -0.0178 C.ar    
   7 O7             5.8514     6.6121    -0.2272 O.3     
   8 C8             5.4439     7.4945    -1.2893 C.3     
   9 O9             4.0060     7.4775    -1.2163 O.3     
  10 C10            1.1655     3.5644     0.0093 C.2     
  11 O11            1.1783     2.3514    -0.0737 O.2     
  12 C12           -0.5209     6.3335    -0.8659 C.3     
  13 C13           -0.0315     5.7028     0.3594 C.3     
  14 N14           -0.0065     4.2196     0.1260 N.am    
  15 C15           -1.2501     3.5116     0.0287 C.3     
  16 C16           -1.8370     3.3588    -1.3966 C.3     
  17 C17           -1.6668     4.6789    -2.1877 C.3     
  18 C18           -1.9062     5.8667    -1.3013 C.3     
  19 H19            3.5325     2.8288     1.0764 H       
  20 H20            5.6405     4.0879     1.0329 H       
  21 H21            1.6140     5.9742    -1.1220 H       
  22 H22            5.8242     8.5014    -1.1177 H       
  23 H23            5.7828     7.1153    -2.2534 H       
  24 H24           -0.5516     7.4121    -0.7118 H       
  25 H25            0.1842     6.1220    -1.6697 H       
  26 H26            0.9740     6.0593     0.5829 H       
  27 H27           -0.7002     5.9358     1.1881 H       
  28 H28           -1.1070     2.5148     0.4458 H       
  29 H29           -1.9849     4.0295     0.6450 H       
  30 H30           -1.3161     2.5555    -1.9177 H       
  31 H31           -2.8968     3.1136    -1.3266 H       
  32 H32           -0.6544     4.7288    -2.5885 H       
  33 H33           -2.3794     4.6974    -3.0123 H       
  34 H34           -2.4967     5.5760    -0.4324 H       
  35 H35           -2.4129     6.6559    -1.8567 H       
@<TRIPOS>BOND
   1    1    2 ar
   2    1    6 ar
   3    1   19 1
   4    2    3 ar
   5    2   20 1
   6    3    4 ar
   7    3    7 1
   8    4    5 ar
   9    4    9 1
  10    5    6 ar
  11    5   21 1
  12    6   10 1
  13    7    8 1
  14    8    9 1
  15    8   22 1
  16    8   23 1
  17   10   11 2
  18   10   14 am
  19   12   13 1
  20   12   18 1
  21   12   24 1
  22   12   25 1
  23   13   14 1
  24   13   26 1
  25   13   27 1
  26   14   15 1
  27   15   16 1
  28   15   28 1
  29   15   29 1
  30   16   17 1
  31   16   30 1
  32   16   31 1
  33   17   18 1
  34   17   32 1
  35   17   33 1
  36   18   34 1
  37   18   35 1

#	End of record

