#	Name: ASD01810916
#	Creating user name:	WinNT
#	Creation time:	15. 06. 2019 19:25

#	Modifying user name:	WinNT
#	Modification time:	15. 06. 2019 19:25

#	Program:	/corina/corina34_cracker 3.40 0067  02.08.2006

@<TRIPOS>MOLECULE
ASD01810916
  37   38    0    0    0
SMALL
NO_CHARGES


@<TRIPOS>ATOM
   1 C1            -0.0262     1.4721    -0.0720 C.2     
   2 C2            -0.0020    -0.0042    -0.0379 C.ar    
   3 C3             1.2151    -0.6867    -0.1184 C.ar    
   4 C4             1.2395    -2.0657    -0.0867 C.ar    
   5 C5             0.0617    -2.7817     0.0249 C.ar    
   6 C6            -1.1618    -2.1114     0.1067 C.ar    
   7 C7            -1.1926    -0.7197     0.0805 C.ar    
   8 O8             1.0157     2.0968    -0.0705 O.2     
   9 O9            -1.2035     2.1258    -0.1104 O.3     
  10 N10           -3.7852    -4.5072     0.3112 N.2     
  11 N11           -2.5487    -4.1857     0.1695 N.2     
  12 C12           -2.4210    -2.8786     0.2260 C.2     
  13 N13           -3.6741    -2.3624     0.4167 N.pl3   
  14 C14           -4.5126    -3.4335     0.4651 C.2     
  15 C15           -6.0063    -3.3886     0.6595 C.3     
  16 C16           -6.6925    -4.1337    -0.4871 C.3     
  17 O17           -8.1089    -4.0912    -0.3027 O.3     
  18 C18           -8.8485    -4.7620    -1.3250 C.3     
  19 C19            2.5034     0.0855    -0.2407 C.3     
  20 C20            2.9452     0.5631     1.1441 C.3     
  21 Cl21           0.1030    -4.5168     0.0628 Cl      
  22 H22            2.1826    -2.5883    -0.1496 H       
  23 H23           -2.1352    -0.1967     0.1476 H       
  24 H24           -1.1687     3.0919    -0.1317 H       
  25 H25           -3.9150    -1.4265     0.5000 H       
  26 H26           -6.2638    -3.8627     1.6066 H       
  27 H27           -6.3403    -2.3510     0.6700 H       
  28 H28           -6.4349    -3.6596    -1.4342 H       
  29 H29           -6.3584    -5.1713    -0.4975 H       
  30 H30           -8.6357    -4.3009    -2.2895 H       
  31 H31           -8.5592    -5.8125    -1.3528 H       
  32 H32           -9.9147    -4.6842    -1.1125 H       
  33 H33            3.2737    -0.5579    -0.6659 H       
  34 H34            2.3503     0.9471    -0.8905 H       
  35 H35            2.1749     1.2065     1.5693 H       
  36 H36            3.0983    -0.2985     1.7938 H       
  37 H37            3.8770     1.1216     1.0556 H       
@<TRIPOS>BOND
   1    1    2 1
   2    1    8 2
   3    1    9 1
   4    2    3 ar
   5    2    7 ar
   6    3    4 ar
   7    3   19 1
   8    4    5 ar
   9    4   22 1
  10    5    6 ar
  11    5   21 1
  12    6    7 ar
  13    6   12 1
  14    7   23 1
  15    9   24 1
  16   10   11 1
  17   10   14 2
  18   11   12 2
  19   12   13 1
  20   13   14 1
  21   13   25 1
  22   14   15 1
  23   15   16 1
  24   15   26 1
  25   15   27 1
  26   16   17 1
  27   16   28 1
  28   16   29 1
  29   17   18 1
  30   18   30 1
  31   18   31 1
  32   18   32 1
  33   19   20 1
  34   19   33 1
  35   19   34 1
  36   20   35 1
  37   20   36 1
  38   20   37 1

#	End of record

