#	Name: ASD01028620
#	Creating user name:	WinNT
#	Creation time:	15. 06. 2019 18:57

#	Modifying user name:	WinNT
#	Modification time:	15. 06. 2019 18:57

#	Program:	/corina/corina34_cracker 3.40 0067  02.08.2006

@<TRIPOS>MOLECULE
ASD01028620
  42   46    0    0    0
SMALL
NO_CHARGES


@<TRIPOS>ATOM
   1 N1            -0.0169     1.3921     0.0097 N.2     
   2 N2             0.0021    -0.0041     0.0020 N.pl3   
   3 C3             1.1078     2.0744     0.0026 C.2     
   4 C4             2.3542     1.4117    -0.0128 C.2     
   5 C5             2.4036     0.0539    -0.0206 C.2     
   6 C6             1.2001    -0.6770    -0.0130 C.2     
   7 N7             0.9137    -1.9688    -0.0172 N.2     
   8 N8            -0.3646    -2.1206    -0.0058 N.2     
   9 C9            -0.9588    -0.9532     0.0061 C.2     
  10 C10           -2.4464    -0.7126     0.0216 C.3     
  11 N11           -2.9154    -0.6426     1.4077 N.pl3   
  12 C12           -4.2594    -0.4263     1.6752 C.ar    
  13 C13           -5.1757    -0.2737     0.6478 C.ar    
  14 C14           -6.5149    -0.0583     0.9446 C.ar    
  15 N15           -6.9459     0.0067     2.1830 N.ar    
  16 C16           -6.1164    -0.1319     3.2226 C.ar    
  17 C17           -4.7370    -0.3607     3.0075 C.ar    
  18 C18           -6.5927    -0.0605     4.5449 C.ar    
  19 C19           -5.6926    -0.2108     5.5669 C.ar    
  20 C20           -4.3413    -0.4285     5.2781 C.ar    
  21 N21           -3.9084    -0.5004     4.0433 N.ar    
  22 O22           -6.1115    -0.1481     6.8577 O.3     
  23 C23           -5.1175    -0.3136     7.8710 C.3     
  24 C24            1.0659     3.5560     0.0105 C.2     
  25 C25           -0.0862     4.2581     0.0248 C.2     
  26 S26            0.3249     5.9712     0.0307 S.3     
  27 C27            1.9898     5.5854     0.0135 C.2     
  28 N28            2.1571     4.3088     0.0098 N.2     
  29 H29            3.2696     1.9847    -0.0189 H       
  30 H30            3.3543    -0.4584    -0.0328 H       
  31 H31           -2.6678     0.2269    -0.4848 H       
  32 H32           -2.9521    -1.5302    -0.4922 H       
  33 H33           -2.2862    -0.7475     2.1385 H       
  34 H34           -4.8496    -0.3218    -0.3807 H       
  35 H35           -7.2205     0.0593     0.1354 H       
  36 H36           -7.6397     0.1087     4.7487 H       
  37 H37           -3.6400    -0.5457     6.0911 H       
  38 H38           -4.6476    -1.2911     7.7628 H       
  39 H39           -4.3623     0.4659     7.7700 H       
  40 H40           -5.5846    -0.2418     8.8533 H       
  41 H41           -1.0834     3.8435     0.0315 H       
  42 H42            2.7898     6.3110     0.0103 H       
@<TRIPOS>BOND
   1    1    2 1
   2    1    3 2
   3    2    6 1
   4    2    9 1
   5    3    4 1
   6    3   24 1
   7    4    5 2
   8    4   29 1
   9    5    6 1
  10    5   30 1
  11    6    7 2
  12    7    8 1
  13    8    9 2
  14    9   10 1
  15   10   11 1
  16   10   31 1
  17   10   32 1
  18   11   12 1
  19   11   33 1
  20   12   13 ar
  21   12   17 ar
  22   13   14 ar
  23   13   34 1
  24   14   15 ar
  25   14   35 1
  26   15   16 ar
  27   16   17 ar
  28   16   18 ar
  29   17   21 ar
  30   18   19 ar
  31   18   36 1
  32   19   20 ar
  33   19   22 1
  34   20   21 ar
  35   20   37 1
  36   22   23 1
  37   23   38 1
  38   23   39 1
  39   23   40 1
  40   24   25 2
  41   24   28 1
  42   25   26 1
  43   25   41 1
  44   26   27 1
  45   27   28 2
  46   27   42 1

#	End of record

