#	Name: ASD01948108
#	Creating user name:	WinNT
#	Creation time:	15. 06. 2019 20:13

#	Modifying user name:	WinNT
#	Modification time:	15. 06. 2019 20:13

#	Program:	/corina/corina34_cracker 3.40 0067  02.08.2006

@<TRIPOS>MOLECULE
ASD01948108
  53   56    0    0    0
SMALL
NO_CHARGES


@<TRIPOS>ATOM
   1 C1             1.7970     1.4187    -1.0548 C.ar    
   2 C2             1.6011     0.0445    -1.1486 C.ar    
   3 C3             1.7834    -0.5978    -2.3655 C.ar    
   4 C4             2.1586     0.1284    -3.4796 C.ar    
   5 C5             2.3533     1.4942    -3.3842 C.ar    
   6 C6             2.1672     2.1400    -2.1745 C.ar    
   7 N7             1.2216    -0.6885    -0.0188 N.pl3   
   8 C8             3.6312    -2.2823    -0.4455 C.2     
   9 C9             2.3516    -2.8722    -0.2942 C.2     
  10 C10            1.1516    -2.0656    -0.0810 C.2     
  11 C11            6.0296    -2.5387    -0.8055 C.3     
  12 N12            4.6875    -3.1035    -0.6443 N.am    
  13 F13            1.6202     2.0482     0.1275 F       
  14 I14            2.9228     2.5895    -5.0768 I       
  15 C15            2.2379    -4.2686    -0.3508 C.2     
  16 N16            1.0116    -4.8542    -0.2064 N.am    
  17 C17           -0.0975    -4.1219    -0.0101 C.2     
  18 C18           -0.0590    -2.7265     0.0572 C.2     
  19 C19            4.5106    -4.4445    -0.6945 C.2     
  20 N20            3.3409    -5.0042    -0.5460 N.2     
  21 O21            3.7746    -1.0732    -0.4029 O.2     
  22 C22            0.9038    -6.3140    -0.2676 C.3     
  23 O23           -1.1697    -4.6916     0.1127 O.2     
  24 C24            6.7022    -2.4230     0.5639 C.3     
  25 C25            8.0739    -1.7136     0.4419 C.3     
  26 O26            7.0529    -3.7265     1.0710 O.3     
  27 O27            8.7834    -2.2466     1.5859 O.3     
  28 C28           -1.3276    -1.9440     0.2794 C.3     
  29 C29            8.3407    -3.6103     1.6903 C.3     
  30 C30            8.2397    -4.0065     3.1647 C.3     
  31 C31            9.3369    -4.5299     0.9813 C.3     
  32 H32            1.6325    -1.6645    -2.4414 H       
  33 H33            2.3005    -0.3715    -4.4263 H       
  34 H34            2.3200     3.2067    -2.1032 H       
  35 H35            1.0078    -0.2288     0.8082 H       
  36 H36            6.6229    -3.1894    -1.4479 H       
  37 H37            5.9558    -1.5501    -1.2587 H       
  38 H38            5.3719    -5.0762    -0.8548 H       
  39 H39            1.0222    -6.7293     0.7331 H       
  40 H40           -0.0741    -6.5899    -0.6622 H       
  41 H41            1.6832    -6.7088    -0.9194 H       
  42 H42            6.0563    -1.8949     1.2653 H       
  43 H43            8.5727    -1.9858    -0.4882 H       
  44 H44            7.9624    -0.6322     0.5211 H       
  45 H45           -2.1796    -2.6238     0.2732 H       
  46 H46           -1.2764    -1.4344     1.2416 H       
  47 H47           -1.4444    -1.2078    -0.5159 H       
  48 H48            7.8930    -5.0371     3.2410 H       
  49 H49            9.2199    -3.9172     3.6329 H       
  50 H50            7.5341    -3.3474     3.6705 H       
  51 H51            9.4127    -4.2435    -0.0677 H       
  52 H52           10.3149    -4.4395     1.4541 H       
  53 H53            8.9930    -5.5618     1.0523 H       
@<TRIPOS>BOND
   1    1    2 ar
   2    1   13 1
   3    1    6 ar
   4    2    3 ar
   5    2    7 1
   6    3    4 ar
   7    3   32 1
   8    4    5 ar
   9    4   33 1
  10    5    6 ar
  11    5   14 1
  12    6   34 1
  13    7   10 1
  14    7   35 1
  15    8    9 1
  16    8   21 2
  17    8   12 am
  18    9   10 1
  19    9   15 2
  20   10   18 2
  21   11   12 1
  22   11   24 1
  23   11   36 1
  24   11   37 1
  25   12   19 1
  26   15   16 1
  27   15   20 1
  28   16   17 am
  29   16   22 1
  30   17   18 1
  31   17   23 2
  32   18   28 1
  33   19   20 2
  34   19   38 1
  35   22   39 1
  36   22   40 1
  37   22   41 1
  38   24   25 1
  39   24   26 1
  40   24   42 1
  41   25   27 1
  42   25   43 1
  43   25   44 1
  44   26   29 1
  45   27   29 1
  46   28   45 1
  47   28   46 1
  48   28   47 1
  49   29   30 1
  50   29   31 1
  51   30   48 1
  52   30   49 1
  53   30   50 1
  54   31   51 1
  55   31   52 1
  56   31   53 1

#	End of record

