#	Name: ASD01912101
#	Creating user name:	WinNT
#	Creation time:	15. 06. 2019 19:59

#	Modifying user name:	WinNT
#	Modification time:	15. 06. 2019 19:59

#	Program:	/corina/corina34_cracker 3.40 0067  02.08.2006

@<TRIPOS>MOLECULE
ASD01912101
  57   61    0    0    0
SMALL
NO_CHARGES


@<TRIPOS>ATOM
   1 N1             0.0115     1.3375    -0.2151 N.2     
   2 C2            -0.0020     0.0063    -0.0867 C.2     
   3 N3             1.2214    -0.4118     0.1574 N.2     
   4 N4             2.0444     0.7257     0.1823 N.pl3   
   5 C5             1.2384     1.7864    -0.0556 C.2     
   6 C6             1.6623     3.2026    -0.1248 C.ar    
   7 C7             0.7257     4.2229     0.0415 C.ar    
   8 C8             1.1271     5.5414    -0.0242 C.ar    
   9 C9             2.4554     5.8524    -0.2543 C.ar    
  10 C10            3.3890     4.8451    -0.4199 C.ar    
  11 C11            3.0011     3.5227    -0.3508 C.ar    
  12 C12           -1.2024    -0.8588    -0.2002 C.ar    
  13 C13           -2.4488    -0.2936    -0.4623 C.ar    
  14 C14           -3.5622    -1.1016    -0.5675 C.ar    
  15 C15           -3.4423    -2.4732    -0.4125 C.ar    
  16 C16           -2.2051    -3.0393    -0.1513 C.ar    
  17 C17           -1.0855    -2.2392    -0.0507 C.ar    
  18 C18            3.4898     0.7578     0.4191 C.3     
  19 C19            4.2171     0.5801    -0.8888 C.2     
  20 N20            5.5646     0.5764    -0.9154 N.am    
  21 O21            3.5899     0.4405    -1.9174 O.2     
  22 F22           -4.5352    -3.2608    -0.5158 F       
  23 C23            6.2056     0.4006    -2.2101 C.3     
  24 C24            6.8829     1.7168    -2.6279 C.3     
  25 C25            8.1480     1.8580    -1.7965 C.2     
  26 C26            8.1841     2.0498    -0.4785 C.2     
  27 C27            6.9347     2.1248     0.3980 C.3     
  28 C28            6.2567     0.7543     0.3510 C.3     
  29 S29            9.7946     1.7963    -2.4110 S.3     
  30 C30           10.3949     2.0581    -0.8314 C.2     
  31 N31            9.4179     2.1627     0.0009 N.2     
  32 C32           11.8540     2.1522    -0.4666 C.3     
  33 C33           12.3841     0.7593    -0.1207 C.3     
  34 H34           -0.3116     3.9814     0.2208 H       
  35 H35            0.4029     6.3322     0.1040 H       
  36 H36            2.7647     6.8859    -0.3051 H       
  37 H37            4.4245     5.0942    -0.5993 H       
  38 H38            3.7309     2.7372    -0.4799 H       
  39 H39           -2.5432     0.7756    -0.5825 H       
  40 H40           -4.5286    -0.6643    -0.7706 H       
  41 H41           -2.1161    -4.1089    -0.0305 H       
  42 H42           -0.1214    -2.6813     0.1529 H       
  43 H43            3.7645     1.7158     0.8604 H       
  44 H44            3.7645    -0.0479     1.0999 H       
  45 H45            6.9551    -0.3878    -2.1405 H       
  46 H46            5.4563     0.1257    -2.9524 H       
  47 H47            7.1372     1.6830    -3.6873 H       
  48 H48            6.2151     2.5558    -2.4325 H       
  49 H49            7.2156     2.3650     1.4234 H       
  50 H50            6.2561     2.8851     0.0113 H       
  51 H51            5.5396     0.6775     1.1682 H       
  52 H52            7.0103    -0.0258     0.4589 H       
  53 H53           12.4143     2.5550    -1.3104 H       
  54 H54           11.9715     2.8099     0.3947 H       
  55 H55           13.4395     0.8273     0.1432 H       
  56 H56           11.8239     0.3565     0.7231 H       
  57 H57           12.2666     0.1017    -0.9820 H       
@<TRIPOS>BOND
   1    1    2 1
   2    1    5 2
   3    2    3 2
   4    2   12 1
   5    3    4 1
   6    4    5 1
   7    4   18 1
   8    5    6 1
   9    6    7 ar
  10    6   11 ar
  11    7    8 ar
  12    7   34 1
  13    8    9 ar
  14    8   35 1
  15    9   10 ar
  16    9   36 1
  17   10   11 ar
  18   10   37 1
  19   11   38 1
  20   12   13 ar
  21   12   17 ar
  22   13   14 ar
  23   13   39 1
  24   14   15 ar
  25   14   40 1
  26   15   16 ar
  27   15   22 1
  28   16   17 ar
  29   16   41 1
  30   17   42 1
  31   18   19 1
  32   18   43 1
  33   18   44 1
  34   19   20 am
  35   19   21 2
  36   20   23 1
  37   20   28 1
  38   23   24 1
  39   23   45 1
  40   23   46 1
  41   24   25 1
  42   24   47 1
  43   24   48 1
  44   25   26 2
  45   25   29 1
  46   26   27 1
  47   26   31 1
  48   27   28 1
  49   27   49 1
  50   27   50 1
  51   28   51 1
  52   28   52 1
  53   29   30 1
  54   30   31 2
  55   30   32 1
  56   32   33 1
  57   32   53 1
  58   32   54 1
  59   33   55 1
  60   33   56 1
  61   33   57 1

#	End of record

