#	Name: ASD02508460
#	Creating user name:	WinNT
#	Creation time:	15. 06. 2019 20:24

#	Modifying user name:	WinNT
#	Modification time:	15. 06. 2019 20:24

#	Program:	/corina/corina34_cracker 3.40 0067  02.08.2006

@<TRIPOS>MOLECULE
ASD02508460
  32   34    0    0    0
SMALL
NO_CHARGES


@<TRIPOS>ATOM
   1 N1            -0.0231     1.3275    -0.0154 N.2     
   2 C2             0.0111    -0.0126    -0.0705 C.2     
   3 C3             1.2986    -0.4029    -0.0321 C.2     
   4 N4             2.0572     0.7378     0.0484 N.pl3   
   5 C5             1.1949     1.7893     0.0560 C.2     
   6 C6             3.4497     0.8058     0.1107 C.ar    
   7 N7             4.1209     0.0840     1.0012 N.ar    
   8 C8             4.1576     1.6277    -0.7643 C.ar    
   9 C9             5.5366     1.6610    -0.6641 C.ar    
  10 N10            6.1358     0.9166     0.2530 N.ar    
  11 C11            5.4368     0.1449     1.0632 C.ar    
  12 S12            1.8953    -2.0602    -0.0757 S.o2    
  13 N13            1.9153    -2.5324    -1.6629 N.am    
  14 C14            2.7713    -1.9008    -2.5690 C.ar    
  15 C15            3.5154    -2.6565    -3.4659 C.ar    
  16 C16            4.3606    -2.0297    -4.3603 C.ar    
  17 C17            4.4666    -0.6499    -4.3635 C.ar    
  18 C18            3.7268     0.1055    -3.4708 C.ar    
  19 C19            2.8754    -0.5157    -2.5783 C.ar    
  20 O20            3.2517    -2.0095     0.3449 O.2     
  21 O21            0.9113    -2.8581     0.5679 O.2     
  22 Cl22           6.2714    -0.8106     2.2482 Cl      
  23 Cl23           5.5300     0.1347    -5.4892 Cl      
  24 H24           -0.8467    -0.6657    -0.1343 H       
  25 H25            1.4719     2.8316     0.1119 H       
  26 H26            3.6420     2.2238    -1.5027 H       
  27 H27            6.1178     2.2861    -1.3258 H       
  28 H28            1.3328    -3.2474    -1.9635 H       
  29 H29            3.4333    -3.7334    -3.4636 H       
  30 H30            4.9397    -2.6169    -5.0577 H       
  31 H31            3.8120     1.1821    -3.4750 H       
  32 H32            2.2979     0.0743    -1.8821 H       
@<TRIPOS>BOND
   1    1    2 1
   2    1    5 2
   3    2    3 2
   4    2   24 1
   5    3    4 1
   6    3   12 1
   7    4    5 1
   8    4    6 1
   9    5   25 1
  10    6    7 ar
  11    6    8 ar
  12    7   11 ar
  13    8    9 ar
  14    8   26 1
  15    9   10 ar
  16    9   27 1
  17   10   11 ar
  18   11   22 1
  19   12   13 am
  20   12   20 2
  21   12   21 2
  22   13   14 1
  23   13   28 1
  24   14   15 ar
  25   14   19 ar
  26   15   16 ar
  27   15   29 1
  28   16   17 ar
  29   16   30 1
  30   17   18 ar
  31   17   23 1
  32   18   19 ar
  33   18   31 1
  34   19   32 1

#	End of record

