#	Name: ASD01915757
#	Creating user name:	WinNT
#	Creation time:	15. 06. 2019 20:06

#	Modifying user name:	WinNT
#	Modification time:	15. 06. 2019 20:06

#	Program:	/corina/corina34_cracker 3.40 0067  02.08.2006

@<TRIPOS>MOLECULE
ASD01915757
  44   47    0    0    0
SMALL
NO_CHARGES


@<TRIPOS>ATOM
   1 C1            -0.0460     1.1460     0.1172 C.2     
   2 N2             0.1737    -0.2130     0.1449 N.pl3   
   3 C3            -0.9383    -1.1648     0.0337 C.3     
   4 C4            -2.1995    -0.5398     0.6277 C.3     
   5 N5            -2.4253     0.8228     0.1582 N.am    
   6 C6            -1.4039     1.7019     0.0165 C.2     
   7 C7             1.1757     1.7506     0.2121 C.2     
   8 C8             2.0954     0.6974     0.3063 C.2     
   9 N9             1.4249    -0.4304     0.2644 N.2     
  10 C10            3.5907     0.8353     0.4337 C.3     
  11 O11            4.2198     0.2950    -0.7301 O.3     
  12 C12            5.4455     0.7852    -1.0526 C.ar    
  13 O13           -1.5994     2.8859    -0.1827 O.2     
  14 C14            6.0666     0.3857    -2.2271 C.ar    
  15 C15            6.0754     1.6904    -0.2108 C.ar    
  16 C16            7.3214     2.1872    -0.5409 C.ar    
  17 C17            7.9408     1.7831    -1.7091 C.ar    
  18 C18            7.3127     0.8855    -2.5526 C.ar    
  19 C19            4.0693     0.0744     1.6719 C.3     
  20 C20           -3.7270     1.2314    -0.1535 C.ar    
  21 C21           -4.6811     1.3389     0.8499 C.ar    
  22 C22           -5.9649     1.7427     0.5402 C.ar    
  23 C23           -6.3013     2.0401    -0.7698 C.ar    
  24 C24           -5.3514     1.9336    -1.7718 C.ar    
  25 C25           -4.0649     1.5356    -1.4657 C.ar    
  26 F26           -7.5580     2.4341    -1.0707 F       
  27 H27           -1.1099    -1.4029    -1.0160 H       
  28 H28           -0.6927    -2.0764     0.5786 H       
  29 H29           -3.0583    -1.1531     0.3551 H       
  30 H30           -2.1085    -0.5276     1.7138 H       
  31 H31            1.3867     2.8098     0.2137 H       
  32 H32            3.8514     1.8891     0.5316 H       
  33 H33            5.5765    -0.3156    -2.8861 H       
  34 H34            5.5919     2.0066     0.7017 H       
  35 H35            7.8120     2.8921     0.1140 H       
  36 H36            8.9150     2.1727    -1.9654 H       
  37 H37            7.7987     0.5711    -3.4644 H       
  38 H38            3.8086    -0.9794     1.5740 H       
  39 H39            5.1508     0.1741     1.7640 H       
  40 H40            3.5894     0.4865     2.5596 H       
  41 H41           -4.4193     1.1064     1.8716 H       
  42 H42           -6.7072     1.8264     1.3202 H       
  43 H43           -5.6159     2.1656    -2.7929 H       
  44 H44           -3.3244     1.4526    -2.2475 H       
@<TRIPOS>BOND
   1    1    2 1
   2    1    7 2
   3    1    6 1
   4    2    3 1
   5    2    9 1
   6    3    4 1
   7    3   27 1
   8    3   28 1
   9    4    5 1
  10    4   29 1
  11    4   30 1
  12    5    6 am
  13    5   20 1
  14    6   13 2
  15    7    8 1
  16    7   31 1
  17    8    9 2
  18    8   10 1
  19   10   11 1
  20   10   19 1
  21   10   32 1
  22   11   12 1
  23   12   14 ar
  24   12   15 ar
  25   14   18 ar
  26   14   33 1
  27   15   16 ar
  28   15   34 1
  29   16   17 ar
  30   16   35 1
  31   17   18 ar
  32   17   36 1
  33   18   37 1
  34   19   38 1
  35   19   39 1
  36   19   40 1
  37   20   21 ar
  38   20   25 ar
  39   21   22 ar
  40   21   41 1
  41   22   23 ar
  42   22   42 1
  43   23   24 ar
  44   23   26 1
  45   24   25 ar
  46   24   43 1
  47   25   44 1

#	End of record

