#	Name: ASD01328024
#	Creating user name:	WinNT
#	Creation time:	15. 06. 2019 19:16

#	Modifying user name:	WinNT
#	Modification time:	15. 06. 2019 19:16

#	Program:	/corina/corina34_cracker 3.40 0067  02.08.2006

@<TRIPOS>MOLECULE
ASD01328024
  34   34    0    0    0
SMALL
NO_CHARGES


@<TRIPOS>ATOM
   1 N1            -0.0162     1.3436     0.0094 N.am    
   2 C2             0.0021    -0.0041     0.0020 C.2     
   3 O3             1.0627    -0.5974    -0.0113 O.2     
   4 N4            -1.1558    -0.6938     0.0094 N.am    
   5 C5            -1.1360    -2.1586     0.0013 C.3     
   6 C6            -2.3032    -2.6896     0.8375 C.3     
   7 O7            -2.1495    -2.2680     2.1942 O.3     
   8 C8            -2.3113    -4.2201     0.7749 C.3     
   9 O9            -3.4406    -4.7220     1.4924 O.3     
  10 C10           -2.3981    -4.6598    -0.6898 C.3     
  11 O11           -2.3333    -6.0854    -0.7651 O.3     
  12 C12           -1.2271    -4.0527    -1.4670 C.3     
  13 O13           -1.2611    -2.6295    -1.3421 O.3     
  14 C14           -1.3401    -4.4381    -2.9434 C.3     
  15 O15           -0.1877    -3.9705    -3.6472 O.3     
  16 C16            1.1417     2.0332     0.0021 C.2     
  17 O17            2.1997     1.4414    -0.0112 O.2     
  18 C18            1.1213     3.5401     0.0104 C.3     
  19 H19           -0.8627     1.8171     0.0160 H       
  20 H20           -2.0023    -0.2203     0.0200 H       
  21 H21           -0.1955    -2.5119     0.4243 H       
  22 H22           -3.2416    -2.3030     0.4400 H       
  23 H23           -2.1312    -1.3079     2.3080 H       
  24 H24           -1.3949    -4.6081     1.2197 H       
  25 H25           -3.4540    -4.4752     2.4273 H       
  26 H26           -3.3390    -4.3148    -1.1186 H       
  27 H27           -3.0438    -6.5370    -0.2895 H       
  28 H28           -0.2879    -4.4307    -1.0633 H       
  29 H29           -1.4046    -5.5226    -3.0318 H       
  30 H30           -2.2350    -3.9849    -3.3698 H       
  31 H31           -0.1916    -4.1801    -4.5913 H       
  32 H32            0.0888     3.8894     0.0221 H       
  33 H33            1.6386     3.9056     0.8974 H       
  34 H34            1.6216     3.9152    -0.8824 H       
@<TRIPOS>BOND
   1    1    2 am
   2    1   16 am
   3    1   19 1
   4    2    3 2
   5    2    4 am
   6    4    5 1
   7    4   20 1
   8    5    6 1
   9    5   13 1
  10    5   21 1
  11    6    7 1
  12    6    8 1
  13    6   22 1
  14    7   23 1
  15    8    9 1
  16    8   10 1
  17    8   24 1
  18    9   25 1
  19   10   11 1
  20   10   12 1
  21   10   26 1
  22   11   27 1
  23   12   13 1
  24   12   14 1
  25   12   28 1
  26   14   15 1
  27   14   29 1
  28   14   30 1
  29   15   31 1
  30   16   17 2
  31   16   18 1
  32   18   32 1
  33   18   33 1
  34   18   34 1

#	End of record

