#	Name: ASD00171063
#	Creating user name:	WinNT
#	Creation time:	15. 06. 2019 18:32

#	Modifying user name:	WinNT
#	Modification time:	15. 06. 2019 18:32

#	Program:	/corina/corina34_cracker 3.40 0067  02.08.2006

@<TRIPOS>MOLECULE
ASD00171063
  60   63    0    0    0
SMALL
NO_CHARGES


@<TRIPOS>ATOM
   1 C1             0.2513     1.6708    -0.1068 C.ar    
   2 C2             0.3534     0.2823    -0.1364 C.ar    
   3 C3            -0.7720    -0.4887    -0.2008 C.ar    
   4 C4            -2.0348     0.1153    -0.2372 C.ar    
   5 C5            -2.1404     1.5123    -0.2075 C.ar    
   6 C6            -1.0019     2.2823    -0.1369 C.ar    
   7 Cl7           -1.1248     4.0135    -0.0991 Cl      
   8 C8            -3.2454    -0.7131    -0.3069 C.2     
   9 C9            -4.4630    -0.1285    -0.3420 C.2     
  10 C10           -5.6678    -0.9529    -0.4113 C.2     
  11 N11           -6.8838    -0.3771    -0.3332 N.am    
  12 O12           -5.5729    -2.1598    -0.5396 O.2     
  13 C13           -7.0141     1.0619    -0.0641 C.3     
  14 C14           -7.8526     1.6954    -1.1812 C.3     
  15 N15           -9.0721     0.8957    -1.3641 N.am    
  16 C16           -8.9418    -0.5432    -1.6332 C.3     
  17 C17           -8.1031    -1.1756    -0.5217 C.3     
  18 S18            1.7088     2.6574    -0.0238 S.3     
  19 C19            2.9900     1.4590     0.1404 C.ar    
  20 C20          -10.2881     1.4716    -1.2860 C.2     
  21 C21          -11.5297     0.6389    -1.4757 C.3     
  22 O22          -10.3831     2.6599    -1.0631 O.2     
  23 C23            3.4045     0.7449    -0.9686 C.ar    
  24 C24            4.4279    -0.2118    -0.8349 C.ar    
  25 C25            5.0136    -0.4231     0.4388 C.ar    
  26 C26            4.5678     0.3203     1.5458 C.ar    
  27 C27            3.5805     1.2444     1.3901 C.ar    
  28 Cl28           5.2813     0.0657     3.1077 Cl      
  29 N29            4.8510    -0.9193    -1.8880 N.ar    
  30 C30            5.8037    -1.8124    -1.7705 C.ar    
  31 C31            6.4208    -2.0685    -0.5485 C.ar    
  32 C32            6.0363    -1.3803     0.5676 C.ar    
  33 O33            2.8269     0.9652    -2.1802 O.3     
  34 C34            3.4208     1.9657    -3.0098 C.3     
  35 C35            2.6398     2.0704    -4.3212 C.3     
  36 H36            1.3260    -0.1865    -0.1088 H       
  37 H37           -0.6880    -1.5652    -0.2239 H       
  38 H38           -3.1120     1.9831    -0.2354 H       
  39 H39           -3.1625    -1.7897    -0.3301 H       
  40 H40           -4.5459     0.9481    -0.3188 H       
  41 H41           -7.5099     1.2112     0.8950 H       
  42 H42           -6.0258     1.5211    -0.0433 H       
  43 H43           -8.1217     2.7145    -0.9036 H       
  44 H44           -7.2793     1.7054    -2.1082 H       
  45 H45           -9.9301    -1.0024    -1.6540 H       
  46 H46           -8.4459    -0.6926    -2.5923 H       
  47 H47           -7.8348    -2.1946    -0.8006 H       
  48 H48           -8.6742    -1.1861     0.4066 H       
  49 H49          -11.5606    -0.1451    -0.7191 H       
  50 H50          -12.4109     1.2730    -1.3780 H       
  51 H51          -11.5158     0.1865    -2.4673 H       
  52 H52            3.2425     1.8125     2.2441 H       
  53 H53            6.1180    -2.3640    -2.6442 H       
  54 H54            7.2025    -2.8109    -0.4830 H       
  55 H55            6.5047    -1.5665     1.5228 H       
  56 H56            3.3964     2.9261    -2.4947 H       
  57 H57            4.4546     1.6941    -3.2232 H       
  58 H58            3.0928     2.8336    -4.9540 H       
  59 H59            2.6641     1.1100    -4.8363 H       
  60 H60            1.6060     2.3421    -4.1078 H       
@<TRIPOS>BOND
   1    1    2 ar
   2    1   18 1
   3    1    6 ar
   4    2    3 ar
   5    2   36 1
   6    3    4 ar
   7    3   37 1
   8    4    5 ar
   9    4    8 1
  10    5    6 ar
  11    5   38 1
  12    6    7 1
  13    8    9 2
  14    8   39 1
  15    9   10 1
  16    9   40 1
  17   10   11 am
  18   10   12 2
  19   11   13 1
  20   11   17 1
  21   13   14 1
  22   13   41 1
  23   13   42 1
  24   14   15 1
  25   14   43 1
  26   14   44 1
  27   15   16 1
  28   15   20 am
  29   16   17 1
  30   16   45 1
  31   16   46 1
  32   17   47 1
  33   17   48 1
  34   18   19 1
  35   19   23 ar
  36   19   27 ar
  37   20   21 1
  38   20   22 2
  39   21   49 1
  40   21   50 1
  41   21   51 1
  42   23   24 ar
  43   23   33 1
  44   24   25 ar
  45   24   29 ar
  46   25   26 ar
  47   25   32 ar
  48   26   27 ar
  49   26   28 1
  50   27   52 1
  51   29   30 ar
  52   30   31 ar
  53   30   53 1
  54   31   32 ar
  55   31   54 1
  56   32   55 1
  57   33   34 1
  58   34   35 1
  59   34   56 1
  60   34   57 1
  61   35   58 1
  62   35   59 1
  63   35   60 1

#	End of record

