#	Name: ASD03331296
#	Creating user name:	WinNT
#	Creation time:	15. 06. 2019 20:38

#	Modifying user name:	WinNT
#	Modification time:	15. 06. 2019 20:38

#	Program:	/corina/corina34_cracker 3.40 0067  02.08.2006

@<TRIPOS>MOLECULE
ASD03331296
  50   53    0    0    0
SMALL
NO_CHARGES


@<TRIPOS>ATOM
   1 N1            -0.0459     1.4956     0.5698 N.am    
   2 C2             0.0019     0.1506     1.1631 C.3     
   3 C3             0.5966    -0.8151     0.1327 C.3     
   4 N4             1.8894    -0.2950    -0.3322 N.3     
   5 C5             1.7288     0.9911    -1.0237 C.3     
   6 C6             1.1805     2.0309    -0.0406 C.3     
   7 C7            -1.1849     2.2161     0.5803 C.2     
   8 O8            -2.2139     1.7207     0.9973 O.2     
   9 N9            -1.1831     3.4859     0.1284 N.am    
  10 C10           -2.3851     4.1963     0.0330 C.ar    
  11 C11           -2.4015     5.5681     0.2480 C.ar    
  12 C12            2.5723    -1.2723    -1.1903 C.3     
  13 C13            1.7052    -1.5815    -2.4090 C.3     
  14 C14           -3.5629     3.5318    -0.2826 C.ar    
  15 C15           -4.7474     4.2358    -0.3765 C.ar    
  16 C16           -4.7613     5.6010    -0.1566 C.ar    
  17 C17           -3.5893     6.2664     0.1527 C.ar    
  18 C18            2.4733    -2.4030    -3.4111 C.ar    
  19 C19            3.8464    -2.5009    -3.3922 C.ar    
  20 C20            4.6950    -1.8027    -2.3619 C.3     
  21 C21            3.9033    -0.6891    -1.6793 C.3     
  22 C22            1.7485    -3.0792    -4.3843 C.ar    
  23 C23            2.3929    -3.8450    -5.3331 C.ar    
  24 C24            3.7730    -3.9407    -5.3167 C.ar    
  25 C25            4.4946    -3.2705    -4.3497 C.ar    
  26 Br26           4.6674    -4.9864    -6.6139 Br      
  27 H27            0.6285     0.1659     2.0549 H       
  28 H28           -1.0063    -0.1697     1.4260 H       
  29 H29            0.7419    -1.7929     0.5920 H       
  30 H30           -0.0837    -0.9080    -0.7139 H       
  31 H31            2.6951     1.3233    -1.4030 H       
  32 H32            1.0327     0.8731    -1.8541 H       
  33 H33            0.9515     2.9537    -0.5736 H       
  34 H34            1.9203     2.2269     0.7355 H       
  35 H35           -0.3488     3.9073    -0.1307 H       
  36 H36           -1.4865     6.0883     0.4900 H       
  37 H37            2.7564    -2.1883    -0.6288 H       
  38 H38            0.8225    -2.1362    -2.0906 H       
  39 H39            1.3929    -0.6466    -2.8744 H       
  40 H40           -3.5526     2.4657    -0.4549 H       
  41 H41           -5.6637     3.7197    -0.6223 H       
  42 H42           -5.6889     6.1493    -0.2306 H       
  43 H43           -3.6034     7.3327     0.3239 H       
  44 H44            5.0180    -2.5255    -1.6127 H       
  45 H45            5.5714    -1.3744    -2.8484 H       
  46 H46            3.7129     0.1148    -2.3903 H       
  47 H47            4.4689    -0.3035    -0.8311 H       
  48 H48            0.6711    -3.0049    -4.3978 H       
  49 H49            1.8223    -4.3684    -6.0860 H       
  50 H50            5.5719    -3.3452    -4.3373 H       
@<TRIPOS>BOND
   1    1    2 1
   2    1    6 1
   3    1    7 am
   4    2    3 1
   5    2   27 1
   6    2   28 1
   7    3    4 1
   8    3   29 1
   9    3   30 1
  10    4    5 1
  11    4   12 1
  12    5    6 1
  13    5   31 1
  14    5   32 1
  15    6   33 1
  16    6   34 1
  17    7    8 2
  18    7    9 am
  19    9   10 1
  20    9   35 1
  21   10   11 ar
  22   10   14 ar
  23   11   17 ar
  24   11   36 1
  25   12   13 1
  26   12   21 1
  27   12   37 1
  28   13   18 1
  29   13   38 1
  30   13   39 1
  31   14   15 ar
  32   14   40 1
  33   15   16 ar
  34   15   41 1
  35   16   17 ar
  36   16   42 1
  37   17   43 1
  38   18   19 ar
  39   18   22 ar
  40   19   20 1
  41   19   25 ar
  42   20   21 1
  43   20   44 1
  44   20   45 1
  45   21   46 1
  46   21   47 1
  47   22   23 ar
  48   22   48 1
  49   23   24 ar
  50   23   49 1
  51   24   25 ar
  52   24   26 1
  53   25   50 1

#	End of record

