#	Name: ASD02500077
#	Creating user name:	WinNT
#	Creation time:	15. 06. 2019 20:22

#	Modifying user name:	WinNT
#	Modification time:	15. 06. 2019 20:22

#	Program:	/corina/corina34_cracker 3.40 0067  02.08.2006

@<TRIPOS>MOLECULE
ASD02500077
  61   65    0    0    0
SMALL
NO_CHARGES


@<TRIPOS>ATOM
   1 N1            -3.6611     5.4840    -0.0989 N.ar    
   2 C2            -4.8379     6.0367    -0.2659 C.ar    
   3 C3            -5.9111     5.7442     0.5734 C.ar    
   4 C4            -5.7507     4.8602     1.6020 C.ar    
   5 C5            -4.4856     4.2683     1.7780 C.ar    
   6 C6            -4.2451     3.3511     2.8133 C.ar    
   7 C7            -3.0072     2.8006     2.9504 C.ar    
   8 C8            -1.9750     3.1357     2.0769 C.ar    
   9 C9            -2.1731     4.0212     1.0624 C.ar    
  10 C10           -3.4372     4.6108     0.8882 C.ar    
  11 S11           -0.8499     4.4277    -0.0277 S.o2    
  12 O12           -0.8173     5.8461    -0.1078 O.2     
  13 O13            0.2636     3.6468     0.3841 O.2     
  14 N14           -1.2710     3.8838    -1.5341 N.am    
  15 C15           -1.4719     2.5252    -1.7516 C.ar    
  16 C16           -2.5944     2.0925    -2.4524 C.ar    
  17 C17           -2.7960     0.7487    -2.6693 C.ar    
  18 C18           -1.8723    -0.1823    -2.1852 C.ar    
  19 C19           -0.7462     0.2554    -1.4820 C.ar    
  20 C20           -0.5473     1.6009    -1.2732 C.ar    
  21 C21           -2.0857    -1.6237    -2.4156 C.2     
  22 O22           -1.1441    -2.3409    -2.6940 O.2     
  23 N23           -3.3245    -2.1457    -2.3176 N.am    
  24 C24           -3.5476    -3.5923    -2.4613 C.3     
  25 C25           -4.3700    -4.0793    -1.2635 C.3     
  26 N26           -5.5911    -3.2707    -1.1507 N.3     
  27 C27           -5.2742    -1.8617    -0.8820 C.3     
  28 C28           -4.4882    -1.2845    -2.0581 C.3     
  29 C29           -6.7118    -3.0683     0.9834 C.ar    
  30 C30           -6.4469    -3.7882    -0.1708 C.ar    
  31 C31           -7.0477    -5.0389    -0.3419 C.ar    
  32 C32           -7.8897    -5.5076     0.6604 C.ar    
  33 C33           -8.1016    -4.7281     1.7806 C.ar    
  34 N34           -7.5184    -3.5518     1.9091 N.ar    
  35 O35           -6.8152    -5.7770    -1.4585 O.3     
  36 C36           -7.4719    -7.0430    -1.5477 C.3     
  37 H37           -4.9795     6.7377    -1.0752 H       
  38 H38           -6.8687     6.2164     0.4108 H       
  39 H39           -6.5715     4.6222     2.2623 H       
  40 H40           -5.0372     3.0840     3.4971 H       
  41 H41           -2.8231     2.0950     3.7472 H       
  42 H42           -1.0018     2.6859     2.2070 H       
  43 H43           -1.3775     4.5129    -2.2646 H       
  44 H44           -3.3078     2.8122    -2.8258 H       
  45 H45           -3.6671     0.4136    -3.2126 H       
  46 H46           -0.0310    -0.4615    -1.1065 H       
  47 H47            0.3250     1.9400    -0.7341 H       
  48 H48           -4.0933    -3.7887    -3.3842 H       
  49 H49           -2.5889    -4.1104    -2.4822 H       
  50 H50           -4.6387    -5.1257    -1.4082 H       
  51 H51           -3.7807    -3.9774    -0.3522 H       
  52 H52           -6.1988    -1.2997    -0.7499 H       
  53 H53           -4.6724    -1.7906     0.0240 H       
  54 H54           -4.1509    -0.2775    -1.8125 H       
  55 H55           -5.1260    -1.2547    -2.9415 H       
  56 H56           -6.2500    -2.1029     1.1286 H       
  57 H57           -8.3722    -6.4689     0.5640 H       
  58 H58           -8.7545    -5.0866     2.5626 H       
  59 H59           -7.1643    -7.6715    -0.7119 H       
  60 H60           -8.5513    -6.8957    -1.5135 H       
  61 H61           -7.2009    -7.5276    -2.4857 H       
@<TRIPOS>BOND
   1    1    2 ar
   2    1   10 ar
   3    2    3 ar
   4    2   37 1
   5    3    4 ar
   6    3   38 1
   7    4    5 ar
   8    4   39 1
   9    5    6 ar
  10    5   10 ar
  11    6    7 ar
  12    6   40 1
  13    7    8 ar
  14    7   41 1
  15    8    9 ar
  16    8   42 1
  17    9   10 ar
  18    9   11 1
  19   11   12 2
  20   11   13 2
  21   11   14 am
  22   14   15 1
  23   14   43 1
  24   15   16 ar
  25   15   20 ar
  26   16   17 ar
  27   16   44 1
  28   17   18 ar
  29   17   45 1
  30   18   19 ar
  31   18   21 1
  32   19   20 ar
  33   19   46 1
  34   20   47 1
  35   21   22 2
  36   21   23 am
  37   23   24 1
  38   23   28 1
  39   24   25 1
  40   24   48 1
  41   24   49 1
  42   25   26 1
  43   25   50 1
  44   25   51 1
  45   26   27 1
  46   26   30 1
  47   27   28 1
  48   27   52 1
  49   27   53 1
  50   28   54 1
  51   28   55 1
  52   29   30 ar
  53   29   34 ar
  54   29   56 1
  55   30   31 ar
  56   31   32 ar
  57   31   35 1
  58   32   33 ar
  59   32   57 1
  60   33   34 ar
  61   33   58 1
  62   35   36 1
  63   36   59 1
  64   36   60 1
  65   36   61 1

#	End of record

