#	Name: ASD08520005
#	Creating user name:	WinNT
#	Creation time:	15. 06. 2019 21:19

#	Modifying user name:	WinNT
#	Modification time:	15. 06. 2019 21:19

#	Program:	/corina/corina34_cracker 3.40 0067  02.08.2006

@<TRIPOS>MOLECULE
ASD08520005
  81   82    0    0    0
SMALL
NO_CHARGES


@<TRIPOS>ATOM
   1 C1             0.9450    -0.6031     0.2746 C.2     
   2 N2             0.7754    -1.9506     0.2518 N.pl3   
   3 C3            -0.5748    -2.5188     0.2350 C.3     
   4 C4            -0.4851    -4.0460     0.2107 C.3     
   5 C5            -1.8740    -4.6305     0.1934 C.2     
   6 N6            -2.0423    -5.9675     0.1708 N.am    
   7 C7            -3.3925    -6.5358     0.1539 C.3     
   8 C8            -3.3028    -8.0629     0.1297 C.3     
   9 C9            -4.6917    -8.6475     0.1124 C.2     
  10 N10           -4.8599    -9.9845     0.0897 N.am    
  11 C11           -6.2102   -10.5527     0.0729 C.3     
  12 C12           -6.1205   -12.0799     0.0487 C.3     
  13 C13           -7.5306   -12.6733     0.0310 C.3     
  14 N14           -7.4448   -14.1356     0.0079 N.am    
  15 C15           -8.5705   -14.8765    -0.0105 C.2     
  16 C16           -8.4822   -16.3808    -0.0344 C.3     
  17 C17           -9.8923   -16.9742    -0.0520 C.3     
  18 N18           -9.8064   -18.4365    -0.0752 N.am    
  19 C19          -10.9321   -19.1774    -0.0936 C.2     
  20 C20          -10.8438   -20.6816    -0.1174 C.3     
  21 C21          -12.2540   -21.2751    -0.1350 C.3     
  22 N22          -12.1681   -22.7374    -0.1582 N.pl3   
  23 C23          -13.3026   -23.4841    -0.1768 C.2     
  24 C24          -13.2195   -24.8999    -0.1992 C.2     
  25 C25            2.2522    -0.0529     0.2909 C.2     
  26 C26            2.4308     1.3377     0.1967 C.2     
  27 C27            3.6849     1.8650     0.2123 C.2     
  28 C28            4.8009     1.0196     0.3222 C.2     
  29 C29            4.6230    -0.3702     0.4160 C.2     
  30 C30            3.3690    -0.8979     0.4072 C.2     
  31 C31          -11.9681   -25.5287    -0.3140 C.2     
  32 C32          -14.3880   -25.6742    -0.1008 C.2     
  33 C33          -14.3078   -27.0322    -0.1219 C.2     
  34 C34          -13.0574   -27.6602    -0.2420 C.2     
  35 C35          -11.8889   -26.8869    -0.3350 C.2     
  36 O36            6.0289     1.5364     0.3371 O.2     
  37 O37          -12.9793   -28.9901    -0.2626 O.2     
  38 S38           -0.4192     0.4314     0.2765 S.3     
  39 S39           -3.1482    -3.6644     0.2018 S.2     
  40 S40           -5.9659    -7.6814     0.1208 S.2     
  41 S41          -14.8328   -22.7164    -0.1730 S.3     
  42 S42          -12.3614   -18.4604    -0.0901 S.2     
  43 S43           -9.9997   -14.1595    -0.0070 S.2     
  44 H44            1.5484    -2.5366     0.2467 H       
  45 H45           -1.1141    -2.2006     1.1272 H       
  46 H46           -1.1040    -2.1718    -0.6525 H       
  47 H47            0.0542    -4.3642    -0.6815 H       
  48 H48            0.0440    -4.3930     1.0982 H       
  49 H49           -1.2693    -6.5536     0.1657 H       
  50 H50           -3.9317    -6.2176     1.0461 H       
  51 H51           -3.9216    -6.1888    -0.7336 H       
  52 H52           -2.7635    -8.3811    -0.7625 H       
  53 H53           -2.7736    -8.4100     1.0172 H       
  54 H54           -4.0870   -10.5705     0.0847 H       
  55 H55           -6.7494   -10.2345     0.9651 H       
  56 H56           -6.7393   -10.2057    -0.8146 H       
  57 H57           -5.5812   -12.3981    -0.8435 H       
  58 H58           -5.5913   -12.4269     0.9362 H       
  59 H59           -8.0699   -12.3551     0.9233 H       
  60 H60           -8.0598   -12.3263    -0.8565 H       
  61 H61           -6.5778   -14.5706     0.0057 H       
  62 H62           -7.9429   -16.6990    -0.9266 H       
  63 H63           -7.9530   -16.7278     0.8531 H       
  64 H64          -10.4316   -16.6560     0.8402 H       
  65 H65          -10.4215   -16.6272    -0.9395 H       
  66 H66           -8.9394   -18.8715    -0.0773 H       
  67 H67          -10.3046   -20.9998    -1.0096 H       
  68 H68          -10.3147   -21.0287     0.7701 H       
  69 H69          -12.7932   -20.9569     0.7572 H       
  70 H70          -12.7831   -20.9281    -1.0225 H       
  71 H71          -11.3011   -23.1723    -0.1603 H       
  72 H72            1.5726     1.9879     0.1115 H       
  73 H73            3.8222     2.9337     0.1399 H       
  74 H74            5.4816    -1.0200     0.4997 H       
  75 H75            3.2320    -1.9664     0.4845 H       
  76 H76          -11.0694   -24.9341    -0.3859 H       
  77 H77          -15.3496   -25.1914    -0.0081 H       
  78 H78          -15.2057   -27.6274    -0.0459 H       
  79 H79          -10.9271   -27.3703    -0.4233 H       
  80 H80           -0.5270     0.6970    -1.1041 H       
  81 H81          -15.0980   -22.6922    -1.5577 H       
@<TRIPOS>BOND
   1    1    2 1
   2    1   25 2
   3    1   38 1
   4    2    3 1
   5    2   44 1
   6    3    4 1
   7    3   45 1
   8    3   46 1
   9    4    5 1
  10    4   47 1
  11    4   48 1
  12    5    6 am
  13    5   39 2
  14    6    7 1
  15    6   49 1
  16    7    8 1
  17    7   50 1
  18    7   51 1
  19    8    9 1
  20    8   52 1
  21    8   53 1
  22    9   10 am
  23    9   40 2
  24   10   11 1
  25   10   54 1
  26   11   12 1
  27   11   55 1
  28   11   56 1
  29   12   13 1
  30   12   57 1
  31   12   58 1
  32   13   14 1
  33   13   59 1
  34   13   60 1
  35   14   15 am
  36   14   61 1
  37   15   16 1
  38   15   43 2
  39   16   17 1
  40   16   62 1
  41   16   63 1
  42   17   18 1
  43   17   64 1
  44   17   65 1
  45   18   19 am
  46   18   66 1
  47   19   20 1
  48   19   42 2
  49   20   21 1
  50   20   67 1
  51   20   68 1
  52   21   22 1
  53   21   69 1
  54   21   70 1
  55   22   23 1
  56   22   71 1
  57   23   24 2
  58   23   41 1
  59   24   32 1
  60   24   31 1
  61   25   26 1
  62   25   30 1
  63   26   27 2
  64   26   72 1
  65   27   28 1
  66   27   73 1
  67   28   29 1
  68   28   36 2
  69   29   30 2
  70   29   74 1
  71   30   75 1
  72   31   35 2
  73   31   76 1
  74   32   33 2
  75   32   77 1
  76   33   34 1
  77   33   78 1
  78   34   35 1
  79   34   37 2
  80   35   79 1
  81   38   80 1
  82   41   81 1

#	End of record

