#	Name: ASD01940261
#	Creating user name:	WinNT
#	Creation time:	15. 06. 2019 20:12

#	Modifying user name:	WinNT
#	Modification time:	15. 06. 2019 20:12

#	Program:	/corina/corina34_cracker 3.40 0067  02.08.2006

@<TRIPOS>MOLECULE
ASD01940261
  36   38    0    0    0
SMALL
NO_CHARGES


@<TRIPOS>ATOM
   1 C1            -4.9119    -2.4632     1.5528 C.2     
   2 C2            -4.4228    -1.8651     0.4647 C.2     
   3 C3            -5.3756    -1.4586    -0.4552 C.2     
   4 C4            -6.6372    -1.7272    -0.1130 C.2     
   5 S5            -6.6660    -2.5365     1.4482 S.3     
   6 S6            -2.6969    -1.6111     0.2171 S.o2    
   7 O7            -2.0662    -2.8570     0.4801 O.2     
   8 O8            -2.5661    -0.9189    -1.0170 O.2     
   9 N9            -2.1810    -0.5680     1.3953 N.am    
  10 C10           -2.7394     0.7138     1.4898 C.ar    
  11 C11           -2.9248     1.3045     2.7391 C.ar    
  12 C12           -3.4780     2.5746     2.8268 C.ar    
  13 C13           -3.8439     3.2511     1.6736 C.ar    
  14 C14           -3.6592     2.6623     0.4347 C.ar    
  15 C15           -3.1032     1.3993     0.3409 C.ar    
  16 N16           -2.5542     0.6175     3.9033 N.pl3   
  17 C17           -3.0611     1.0187     5.1433 C.ar    
  18 C18           -4.3893     0.7625     5.4697 C.ar    
  19 C19           -4.8862     1.1603     6.6966 C.ar    
  20 C20           -4.0642     1.8128     7.5986 C.ar    
  21 C21           -2.7440     2.0688     7.2761 C.ar    
  22 C22           -2.2389     1.6685     6.0538 C.ar    
  23 I23           -4.8216     2.4147     9.4569 I       
  24 F24           -5.1919     0.1263     4.5886 F       
  25 F25           -4.3822     4.4872     1.7591 F       
  26 F26           -3.6600     3.1508     4.0352 F       
  27 Cl27          -8.0364    -1.3367    -1.0636 Cl      
  28 Cl28          -3.9613    -3.0813     2.8674 Cl      
  29 H29           -5.1170    -0.9620    -1.3787 H       
  30 H30           -1.4923    -0.8442     2.0200 H       
  31 H31           -3.9462     3.1923    -0.4615 H       
  32 H32           -2.9561     0.9450    -0.6278 H       
  33 H33           -1.9460    -0.1362     3.8488 H       
  34 H34           -5.9169     0.9621     6.9514 H       
  35 H35           -2.1057     2.5789     7.9823 H       
  36 H36           -1.2065     1.8651     5.8051 H       
@<TRIPOS>BOND
   1    1    2 2
   2    1    5 1
   3    1   28 1
   4    2    3 1
   5    2    6 1
   6    3    4 2
   7    3   29 1
   8    4    5 1
   9    4   27 1
  10    6    7 2
  11    6    8 2
  12    6    9 am
  13    9   10 1
  14    9   30 1
  15   10   11 ar
  16   10   15 ar
  17   11   12 ar
  18   11   16 1
  19   12   13 ar
  20   12   26 1
  21   13   14 ar
  22   13   25 1
  23   14   15 ar
  24   14   31 1
  25   15   32 1
  26   16   17 1
  27   16   33 1
  28   17   18 ar
  29   17   22 ar
  30   18   19 ar
  31   18   24 1
  32   19   20 ar
  33   19   34 1
  34   20   21 ar
  35   20   23 1
  36   21   22 ar
  37   21   35 1
  38   22   36 1

#	End of record

