#	Name: ASD01510043
#	Creating user name:	WinNT
#	Creation time:	15. 06. 2019 19:21

#	Modifying user name:	WinNT
#	Modification time:	15. 06. 2019 19:21

#	Program:	/corina/corina34_cracker 3.40 0067  02.08.2006

@<TRIPOS>MOLECULE
ASD01510043
  70   73    0    0    0
SMALL
NO_CHARGES


@<TRIPOS>ATOM
   1 C1            -0.0247     1.4071    -0.0119 C.3     
   2 O2            -0.0012    -0.0217    -0.0159 O.3     
   3 C3             0.6056    -0.6246    -1.0684 C.ar    
   4 N4             1.1469     0.1018    -2.0405 N.ar    
   5 C5             1.7411    -0.4790    -3.0717 C.ar    
   6 N6             1.8215    -1.7964    -3.1798 N.ar    
   7 C7             1.3039    -2.5894    -2.2477 C.ar    
   8 C8             0.6751    -2.0157    -1.1427 C.ar    
   9 S9            -0.0272    -3.0235     0.1205 S.3     
  10 C10            1.3623    -3.1834     1.1922 C.ar    
  11 N11            2.5013    -2.5884     0.8670 N.ar    
  12 C12            3.5667    -2.6858     1.6476 C.ar    
  13 C13            3.4838    -3.4191     2.8163 C.ar    
  14 C14            2.2714    -4.0342     3.1322 C.ar    
  15 N15            1.2412    -3.8911     2.3064 N.ar    
  16 N16            2.1425    -4.7816     4.2975 N.am    
  17 C17            0.9417    -5.2846     4.6461 C.2     
  18 O18           -0.0435    -5.0083     3.9953 O.2     
  19 C19            0.8233    -6.1905     5.8446 C.3     
  20 O20            1.3907    -3.9377    -2.3663 O.3     
  21 C21            2.0556    -4.4456    -3.5247 C.3     
  22 N22            2.2938     0.3139    -4.0654 N.pl3   
  23 C23            2.9559    -0.3077    -5.2150 C.3     
  24 C24            1.9475    -0.5391    -6.3108 C.ar    
  25 C25            1.7247     0.4397    -7.2616 C.ar    
  26 C26            0.8009     0.2300    -8.2671 C.ar    
  27 C27            0.0965    -0.9639    -8.3223 C.ar    
  28 C28            0.3219    -1.9444    -7.3671 C.ar    
  29 C29            1.2509    -1.7321    -6.3669 C.ar    
  30 O30           -0.8132    -1.1724    -9.3102 O.3     
  31 C31           -1.5011    -2.4249    -9.3048 C.3     
  32 C32            2.2158     1.7735    -3.9661 C.3     
  33 C33            3.4244     2.2922    -3.2304 C.ar    
  34 C34            4.5662     2.6319    -3.9322 C.ar    
  35 C35            5.6755     3.1077    -3.2601 C.ar    
  36 C36            5.6430     3.2445    -1.8799 C.ar    
  37 C37            4.4961     2.9029    -1.1781 C.ar    
  38 C38            3.3876     2.4330    -1.8554 C.ar    
  39 O39            6.7331     3.7119    -1.2165 O.3     
  40 C40            6.6281     3.8266     0.2040 C.3     
  41 H41            0.9969     1.7873    -0.0182 H       
  42 H42           -0.5508     1.7643    -0.8971 H       
  43 H43           -0.5380     1.7596     0.8828 H       
  44 H44            4.4904    -2.1977     1.3739 H       
  45 H45            4.3381    -3.5144     3.4701 H       
  46 H46            2.9168    -4.9410     4.8596 H       
  47 H47            0.6271    -5.5922     6.7343 H       
  48 H48            0.0034    -6.8920     5.6903 H       
  49 H49            1.7539    -6.7426     5.9760 H       
  50 H50            1.5357    -4.1056    -4.4204 H       
  51 H51            3.0835    -4.0833    -3.5418 H       
  52 H52            2.0549    -5.5352    -3.4956 H       
  53 H53            3.7443     0.3506    -5.5799 H       
  54 H54            3.3893    -1.2610    -4.9129 H       
  55 H55            2.2730     1.3691    -7.2179 H       
  56 H56            0.6269     0.9950    -9.0093 H       
  57 H57           -0.2251    -2.8747    -7.4080 H       
  58 H58            1.4268    -2.4951    -5.6231 H       
  59 H59           -2.1960    -2.4614   -10.1439 H       
  60 H60           -0.7791    -3.2364    -9.3955 H       
  61 H61           -2.0531    -2.5322    -8.3711 H       
  62 H62            2.1867     2.2047    -4.9667 H       
  63 H63            1.3126     2.0530    -3.4236 H       
  64 H64            4.5911     2.5249    -5.0066 H       
  65 H65            6.5673     3.3726    -3.8087 H       
  66 H66            4.4684     3.0085    -0.1037 H       
  67 H67            2.4944     2.1669    -1.3096 H       
  68 H68            5.8173     4.5108     0.4543 H       
  69 H69            6.4219     2.8463     0.6335 H       
  70 H70            7.5650     4.2104     0.6078 H       
@<TRIPOS>BOND
   1    1    2 1
   2    1   41 1
   3    1   42 1
   4    1   43 1
   5    2    3 1
   6    3    4 ar
   7    3    8 ar
   8    4    5 ar
   9    5    6 ar
  10    5   22 1
  11    6    7 ar
  12    7    8 ar
  13    7   20 1
  14    8    9 1
  15    9   10 1
  16   10   11 ar
  17   10   15 ar
  18   11   12 ar
  19   12   13 ar
  20   12   44 1
  21   13   14 ar
  22   13   45 1
  23   14   15 ar
  24   14   16 1
  25   16   17 am
  26   16   46 1
  27   17   18 2
  28   17   19 1
  29   19   47 1
  30   19   48 1
  31   19   49 1
  32   20   21 1
  33   21   50 1
  34   21   51 1
  35   21   52 1
  36   22   23 1
  37   22   32 1
  38   23   24 1
  39   23   53 1
  40   23   54 1
  41   24   25 ar
  42   24   29 ar
  43   25   26 ar
  44   25   55 1
  45   26   27 ar
  46   26   56 1
  47   27   28 ar
  48   27   30 1
  49   28   29 ar
  50   28   57 1
  51   29   58 1
  52   30   31 1
  53   31   59 1
  54   31   60 1
  55   31   61 1
  56   32   33 1
  57   32   62 1
  58   32   63 1
  59   33   34 ar
  60   33   38 ar
  61   34   35 ar
  62   34   64 1
  63   35   36 ar
  64   35   65 1
  65   36   37 ar
  66   36   39 1
  67   37   38 ar
  68   37   66 1
  69   38   67 1
  70   39   40 1
  71   40   68 1
  72   40   69 1
  73   40   70 1

#	End of record

