#	Name: ASD03540576
#	Creating user name:	WinNT
#	Creation time:	15. 06. 2019 20:43

#	Modifying user name:	WinNT
#	Modification time:	15. 06. 2019 20:43

#	Program:	/corina/corina34_cracker 3.40 0067  02.08.2006

@<TRIPOS>MOLECULE
ASD03540576
  55   60    0    0    0
SMALL
NO_CHARGES


@<TRIPOS>ATOM
   1 N1            -0.0180     1.4768     0.0102 N.pl3   
   2 C2             0.0021    -0.0041     0.0020 C.3     
   3 N3             0.9623    -0.4510     1.0094 N.am    
   4 C4             2.0404     0.3071     1.3135 C.2     
   5 C5             2.2475     1.6118     0.6590 C.ar    
   6 C6             3.4725     2.2609     0.6707 C.ar    
   7 C7             3.5916     3.5064     0.0526 C.ar    
   8 C8             2.4848     4.0964    -0.5710 C.ar    
   9 C9             1.2766     3.4540    -0.5931 C.ar    
  10 C10            1.1466     2.2145     0.0030 C.ar    
  11 N11           -2.1033     0.8453     0.3182 N.2     
  12 N12           -1.3769    -0.3549     0.3610 N.pl3   
  13 C13           -1.3348     1.8568     0.1069 C.2     
  14 C14            4.8907     4.2062     0.0566 C.2     
  15 O15            5.8536     3.6974     0.5973 O.2     
  16 N16            5.0099     5.4092    -0.5392 N.am    
  17 C17            6.2998     6.1039    -0.5353 C.3     
  18 O18            5.7341    11.1165    -3.0165 O.3     
  19 C19            5.7851    11.9173    -1.8209 C.3     
  20 O20            5.3546    11.0140    -0.7855 O.3     
  21 C21            5.6859     9.7664    -1.2293 C.ar    
  22 C22            5.9192     9.8294    -2.6012 C.ar    
  23 C23            5.8099     8.5579    -0.5642 C.ar    
  24 C24            6.1650     7.4176    -1.2613 C.ar    
  25 C25            6.3969     7.4802    -2.6223 C.ar    
  26 C26            6.2745     8.6833    -3.2930 C.ar    
  27 O27            2.8452    -0.0907     2.1336 O.2     
  28 C28           -1.8904    -1.6856     0.6953 C.3     
  29 C29           -1.7680    -1.9129     2.1800 C.ar    
  30 C30           -2.8046    -1.5552     3.0217 C.ar    
  31 C31           -2.6923    -1.7636     4.3836 C.ar    
  32 C32           -1.5437    -2.3303     4.9038 C.ar    
  33 C33           -0.5075    -2.6889     4.0619 C.ar    
  34 C34           -0.6216    -2.4844     2.6995 C.ar    
  35 H35            0.2672    -0.3861    -0.9838 H       
  36 H36            0.8252    -1.2971     1.4634 H       
  37 H37            4.3257     1.8075     1.1533 H       
  38 H38            2.5855     5.0653    -1.0373 H       
  39 H39            0.4272     3.9147    -1.0754 H       
  40 H40           -1.6817     2.8757     0.0175 H       
  41 H41            4.2418     5.8151    -0.9705 H       
  42 H42            6.6105     6.2874     0.4933 H       
  43 H43            7.0462     5.4871    -1.0358 H       
  44 H44            6.8028    12.2592    -1.6321 H       
  45 H45            5.1035    12.7644    -1.8979 H       
  46 H46            5.6299     8.5061     0.4994 H       
  47 H47            6.6740     6.5875    -3.1633 H       
  48 H48            6.4556     8.7292    -4.3567 H       
  49 H49           -2.9380    -1.7550     0.4022 H       
  50 H50           -1.3134    -2.4419     0.1631 H       
  51 H51           -3.7019    -1.1125     2.6154 H       
  52 H52           -3.5018    -1.4835     5.0414 H       
  53 H53           -1.4557    -2.4925     5.9679 H       
  54 H54            0.3900    -3.1313     4.4683 H       
  55 H55            0.1865    -2.7679     2.0414 H       
@<TRIPOS>BOND
   1    1    2 1
   2    1   10 1
   3    1   13 1
   4    2    3 1
   5    2   12 1
   6    2   35 1
   7    3    4 am
   8    3   36 1
   9    4    5 1
  10    4   27 2
  11    5    6 ar
  12    5   10 ar
  13    6    7 ar
  14    6   37 1
  15    7    8 ar
  16    7   14 1
  17    8    9 ar
  18    8   38 1
  19    9   10 ar
  20    9   39 1
  21   11   12 1
  22   11   13 2
  23   12   28 1
  24   13   40 1
  25   14   15 2
  26   14   16 am
  27   16   17 1
  28   16   41 1
  29   17   24 1
  30   17   42 1
  31   17   43 1
  32   18   19 1
  33   18   22 1
  34   19   20 1
  35   19   44 1
  36   19   45 1
  37   20   21 1
  38   21   22 ar
  39   21   23 ar
  40   22   26 ar
  41   23   24 ar
  42   23   46 1
  43   24   25 ar
  44   25   26 ar
  45   25   47 1
  46   26   48 1
  47   28   29 1
  48   28   49 1
  49   28   50 1
  50   29   30 ar
  51   29   34 ar
  52   30   31 ar
  53   30   51 1
  54   31   32 ar
  55   31   52 1
  56   32   33 ar
  57   32   53 1
  58   33   34 ar
  59   33   54 1
  60   34   55 1

#	End of record

