#	Name: ASD01150217
#	Creating user name:	WinNT
#	Creation time:	15. 06. 2019 19:03

#	Modifying user name:	WinNT
#	Modification time:	15. 06. 2019 19:03

#	Program:	/corina/corina34_cracker 3.40 0067  02.08.2006

@<TRIPOS>MOLECULE
ASD01150217
  46   49    0    0    0
SMALL
NO_CHARGES


@<TRIPOS>ATOM
   1 C1            -0.0159     1.3205     0.0093 C.ar    
   2 N2             0.0021    -0.0041     0.0020 N.ar    
   3 C3             1.1588    -0.6427    -0.0124 C.ar    
   4 C4             2.3546     0.0631    -0.0200 C.ar    
   5 N5             2.3510     1.3823    -0.0125 N.ar    
   6 C6             1.1966     2.0331     0.0016 C.ar    
   7 C7             1.1375     3.5094     0.0100 C.2     
   8 N8            -0.0772     4.1001     0.0238 N.am    
   9 C9            -1.2044     3.3715     0.0303 C.2     
  10 N10           -1.2038     2.0278     0.0302 N.am    
  11 C11           -0.1659     5.5624     0.0324 C.3     
  12 O12            2.1549     4.1746     0.0050 O.2     
  13 C13           -0.2088     6.0714    -1.3854 C.ar    
  14 C14           -1.4236     6.2322    -2.0253 C.ar    
  15 C15           -1.4636     6.6990    -3.3256 C.ar    
  16 C16           -0.2875     7.0053    -3.9868 C.ar    
  17 C17            0.9280     6.8441    -3.3458 C.ar    
  18 C18            0.9664     6.3826    -2.0436 C.ar    
  19 Cl19          -0.3369     7.5911    -5.6202 Cl      
  20 O20           -2.2722     3.9524     0.0436 O.2     
  21 C21           -2.4772     1.3035     0.0375 C.3     
  22 C22           -2.9220     1.0553    -1.3808 C.ar    
  23 C23           -2.5334    -0.0998    -2.0339 C.ar    
  24 C24           -2.9398    -0.3297    -3.3340 C.ar    
  25 C25           -3.7386     0.5996    -3.9844 C.ar    
  26 C26           -4.1271     1.7578    -3.3270 C.ar    
  27 C27           -3.7227     1.9803    -2.0249 C.ar    
  28 O28           -4.1394     0.3759    -5.2636 O.3     
  29 C29           -4.9604     1.3758    -5.8704 C.3     
  30 H30            1.1743    -1.7225    -0.0180 H       
  31 H31            3.2931    -0.4711    -0.0318 H       
  32 H32           -1.0716     5.8684     0.5559 H       
  33 H33            0.7050     5.9762     0.5408 H       
  34 H34           -2.3415     5.9928    -1.5091 H       
  35 H35           -2.4126     6.8243    -3.8255 H       
  36 H36            1.8463     7.0831    -3.8615 H       
  37 H37            1.9151     6.2568    -1.5431 H       
  38 H38           -2.3501     0.3502     0.5505 H       
  39 H39           -3.2300     1.8974     0.5557 H       
  40 H40           -1.9113    -0.8228    -1.5272 H       
  41 H41           -2.6358    -1.2320    -3.8438 H       
  42 H42           -4.7489     2.4828    -3.8312 H       
  43 H43           -4.0249     2.8818    -1.5127 H       
  44 H44           -5.2084     1.0739    -6.8880 H       
  45 H45           -5.8771     1.4931    -5.2925 H       
  46 H46           -4.4218     2.3232    -5.8936 H       
@<TRIPOS>BOND
   1    1    2 ar
   2    1    6 ar
   3    1   10 1
   4    2    3 ar
   5    3    4 ar
   6    3   30 1
   7    4    5 ar
   8    4   31 1
   9    5    6 ar
  10    6    7 1
  11    7    8 am
  12    7   12 2
  13    8    9 am
  14    8   11 1
  15    9   10 am
  16    9   20 2
  17   10   21 1
  18   11   13 1
  19   11   32 1
  20   11   33 1
  21   13   14 ar
  22   13   18 ar
  23   14   15 ar
  24   14   34 1
  25   15   16 ar
  26   15   35 1
  27   16   17 ar
  28   16   19 1
  29   17   18 ar
  30   17   36 1
  31   18   37 1
  32   21   22 1
  33   21   38 1
  34   21   39 1
  35   22   23 ar
  36   22   27 ar
  37   23   24 ar
  38   23   40 1
  39   24   25 ar
  40   24   41 1
  41   25   26 ar
  42   25   28 1
  43   26   27 ar
  44   26   42 1
  45   27   43 1
  46   28   29 1
  47   29   44 1
  48   29   45 1
  49   29   46 1

#	End of record

