#	Name: ASD01028837
#	Creating user name:	WinNT
#	Creation time:	15. 06. 2019 18:58

#	Modifying user name:	WinNT
#	Modification time:	15. 06. 2019 18:58

#	Program:	/corina/corina34_cracker 3.40 0067  02.08.2006

@<TRIPOS>MOLECULE
ASD01028837
  41   45    0    0    0
SMALL
NO_CHARGES


@<TRIPOS>ATOM
   1 C1            -0.0157     1.3069     0.0092 C.ar    
   2 N2             0.0021    -0.0041     0.0020 N.ar    
   3 C3             1.1586     2.0559     0.0020 C.ar    
   4 C4             2.3699     1.4244    -0.0129 C.ar    
   5 C5             2.3850     0.0172    -0.0207 C.ar    
   6 C6             1.1531    -0.6832    -0.0126 C.ar    
   7 C7             3.5917    -0.7011    -0.0355 C.ar    
   8 C8             3.5643    -2.0621    -0.0422 C.ar    
   9 C9             2.3540    -2.7531    -0.0344 C.ar    
  10 C10            1.1663    -2.0891    -0.0204 C.ar    
  11 C11            4.8598    -2.8318    -0.0587 C.3     
  12 C12            5.3054    -3.0956     1.3566 C.2     
  13 N13            6.4215    -3.7585     1.7305 N.pl3   
  14 C14            6.4211    -3.7567     3.1052 C.2     
  15 N15            5.3323    -3.1092     3.4868 N.2     
  16 N16            4.6833    -2.7186     2.4458 N.2     
  17 N17            7.4603    -4.3766     1.0315 N.2     
  18 C18            8.4445    -4.9607     1.6788 C.2     
  19 C19            8.4724    -4.9757     3.0896 C.2     
  20 C20            7.4753    -4.3824     3.7973 C.2     
  21 C21            9.5381    -5.6120     0.9171 C.ar    
  22 F22            4.6708    -4.0487    -0.7226 F       
  23 F23            5.8377    -2.0846    -0.7239 F       
  24 C24            9.5204    -5.6036    -0.4765 C.ar    
  25 C25           10.5395    -6.2106    -1.1809 C.ar    
  26 C26           11.5796    -6.8280    -0.5049 C.ar    
  27 C27           11.6012    -6.8388     0.8806 C.ar    
  28 C28           10.5892    -6.2292     1.5930 C.ar    
  29 F29           12.5754    -7.4217    -1.1986 F       
  30 H30           -0.9662     1.8197     0.0165 H       
  31 H31            1.1116     3.1349     0.0079 H       
  32 H32            3.2903     1.9894    -0.0191 H       
  33 H33            4.5358    -0.1768    -0.0420 H       
  34 H34            2.3588    -3.8330    -0.0400 H       
  35 H35            0.2374    -2.6400    -0.0144 H       
  36 H36            9.2871    -5.4597     3.6077 H       
  37 H37            7.4917    -4.3905     4.8772 H       
  38 H38            8.7099    -5.1230    -1.0042 H       
  39 H39           10.5264    -6.2049    -2.2608 H       
  40 H40           12.4136    -7.3214     1.4035 H       
  41 H41           10.6068    -6.2380     2.6728 H       
@<TRIPOS>BOND
   1    1    2 ar
   2    1    3 ar
   3    1   30 1
   4    2    6 ar
   5    3    4 ar
   6    3   31 1
   7    4    5 ar
   8    4   32 1
   9    5    6 ar
  10    5    7 ar
  11    6   10 ar
  12    7    8 ar
  13    7   33 1
  14    8    9 ar
  15    8   11 1
  16    9   10 ar
  17    9   34 1
  18   10   35 1
  19   11   12 1
  20   11   22 1
  21   11   23 1
  22   12   13 1
  23   12   16 2
  24   13   14 1
  25   13   17 1
  26   14   15 2
  27   14   20 1
  28   15   16 1
  29   17   18 2
  30   18   19 1
  31   18   21 1
  32   19   20 2
  33   19   36 1
  34   20   37 1
  35   21   24 ar
  36   21   28 ar
  37   24   25 ar
  38   24   38 1
  39   25   26 ar
  40   25   39 1
  41   26   27 ar
  42   26   29 1
  43   27   28 ar
  44   27   40 1
  45   28   41 1

#	End of record

