#	Name: ASD02448013
#	Creating user name:	WinNT
#	Creation time:	15. 06. 2019 20:21

#	Modifying user name:	WinNT
#	Modification time:	15. 06. 2019 20:21

#	Program:	/corina/corina34_cracker 3.40 0067  02.08.2006

@<TRIPOS>MOLECULE
ASD02448013
  78   84    0    0    0
SMALL
NO_CHARGES


@<TRIPOS>ATOM
   1 C1             3.3181    -7.4083    -1.0997 C.ar    
   2 C2             2.8027    -6.2967    -0.4639 C.ar    
   3 C3             2.1988    -5.2903    -1.2054 C.ar    
   4 C4             2.1125    -5.4016    -2.5865 C.ar    
   5 C5             2.6277    -6.5129    -3.2231 C.ar    
   6 C6             3.2324    -7.5198    -2.4816 C.ar    
   7 N7             3.7547    -8.6453    -3.1261 N.am    
   8 C8             4.8252    -9.5365    -2.6602 C.3     
   9 C9             5.0895   -10.6294    -3.6449 C.2     
  10 N10            4.3206   -10.5946    -4.7424 N.am    
  11 S11            3.2998    -9.2878    -4.5970 S.o2    
  12 O12            5.9341   -11.4811    -3.4653 O.2     
  13 O13            1.9822    -9.7994    -4.4498 O.2     
  14 O14            3.6786    -8.3471    -5.5923 O.2     
  15 N15            1.6748    -4.1603    -0.5585 N.pl3   
  16 C16            0.7437    -4.1584     0.4450 C.2     
  17 C17            2.0020    -2.8654    -0.8079 C.2     
  18 N18            1.3135    -2.0956    -0.0119 N.2     
  19 C19            0.5270    -2.8581     0.7745 C.2     
  20 C20           -0.4087    -2.3648     1.8147 C.ar    
  21 C21           -0.5335    -0.9959     2.0515 C.ar    
  22 C22           -1.1701    -3.2670     2.5545 C.ar    
  23 C23           -2.0393    -2.8032     3.5213 C.ar    
  24 C24           -2.1557    -1.4442     3.7568 C.ar    
  25 C25           -1.4060    -0.5425     3.0210 C.ar    
  26 Cl26          -3.2514    -0.8681     4.9739 Cl      
  27 Cl27           0.4066     0.1355     1.1296 Cl      
  28 C28            2.9983    -2.3956    -1.8363 C.3     
  29 C29            4.3370    -2.1821    -1.1780 C.ar    
  30 C30            5.2086    -3.2457    -1.0281 C.ar    
  31 C31            4.6920    -0.9222    -0.7310 C.ar    
  32 C32            5.9169    -0.7209    -0.1278 C.ar    
  33 C33            6.7966    -1.7898     0.0306 C.ar    
  34 C34            6.4360    -3.0558    -0.4263 C.ar    
  35 C35            8.1152    -1.5794     0.6780 C.ar    
  36 C36            8.9949    -2.6483     0.8363 C.ar    
  37 C37            8.4805    -0.3110     1.1245 C.ar    
  38 C38            9.7081    -0.1210     1.7259 C.ar    
  39 C39           10.5753    -1.1867     1.8853 C.ar    
  40 C40           10.2200    -2.4469     1.4392 C.ar    
  41 C41           11.9148    -0.9728     2.5419 C.3     
  42 C42           12.0142    -1.8461     3.7943 C.3     
  43 C43           13.3741    -1.6290     4.4608 C.3     
  44 C44           14.4878    -2.0103     3.4835 C.3     
  45 C45           14.3885    -1.1370     2.2312 C.3     
  46 C46           13.0285    -1.3542     1.5646 C.3     
  47 H47            3.7918    -8.1891    -0.5232 H       
  48 H48            2.8689    -6.2101     0.6106 H       
  49 H49            1.6420    -4.6188    -3.1629 H       
  50 H50            2.5603    -6.5995    -4.2975 H       
  51 H51            5.7366    -8.9558    -2.5182 H       
  52 H52            4.5330    -9.9776    -1.7072 H       
  53 H53            4.3513   -11.2188    -5.4843 H       
  54 H54            0.2726    -5.0229     0.8889 H       
  55 H55           -1.0806    -4.3277     2.3717 H       
  56 H56           -2.6300    -3.5021     4.0949 H       
  57 H57           -1.5004     0.5169     3.2085 H       
  58 H58            3.0943    -3.1477    -2.6194 H       
  59 H59            2.6547    -1.4580    -2.2733 H       
  60 H60            4.9279    -4.2266    -1.3822 H       
  61 H61            4.0095    -0.0943    -0.8546 H       
  62 H62            6.1932     0.2634     0.2206 H       
  63 H63            7.1139    -3.8878    -0.3057 H       
  64 H64            8.7184    -3.6326     0.4883 H       
  65 H65            7.8044     0.5219     0.9999 H       
  66 H66            9.9922     0.8616     2.0724 H       
  67 H67           10.9008    -3.2756     1.5665 H       
  68 H68           12.0195     0.0757     2.8208 H       
  69 H69           11.2208    -1.5745     4.4905 H       
  70 H70           11.9096    -2.8946     3.5153 H       
  71 H71           13.4788    -0.5805     4.7398 H       
  72 H72           13.4449    -2.2511     5.3530 H       
  73 H73           15.4567    -1.8556     3.9584 H       
  74 H74           14.3832    -3.0588     3.2046 H       
  75 H75           14.4931    -0.0885     2.5101 H       
  76 H76           15.1819    -1.4087     1.5349 H       
  77 H77           12.9239    -2.4027     1.2856 H       
  78 H78           12.9578    -0.7320     0.6724 H       
@<TRIPOS>BOND
   1    1    2 ar
   2    1    6 ar
   3    1   47 1
   4    2    3 ar
   5    2   48 1
   6    3    4 ar
   7    3   15 1
   8    4    5 ar
   9    4   49 1
  10    5    6 ar
  11    5   50 1
  12    6    7 1
  13    7    8 1
  14    7   11 am
  15    8    9 1
  16    8   51 1
  17    8   52 1
  18    9   10 am
  19    9   12 2
  20   10   11 am
  21   10   53 1
  22   11   13 2
  23   11   14 2
  24   15   16 1
  25   15   17 1
  26   16   19 2
  27   16   54 1
  28   17   18 2
  29   17   28 1
  30   18   19 1
  31   19   20 1
  32   20   21 ar
  33   20   22 ar
  34   21   27 1
  35   21   25 ar
  36   22   23 ar
  37   22   55 1
  38   23   24 ar
  39   23   56 1
  40   24   25 ar
  41   24   26 1
  42   25   57 1
  43   28   29 1
  44   28   58 1
  45   28   59 1
  46   29   30 ar
  47   29   31 ar
  48   30   34 ar
  49   30   60 1
  50   31   32 ar
  51   31   61 1
  52   32   33 ar
  53   32   62 1
  54   33   34 ar
  55   33   35 1
  56   34   63 1
  57   35   36 ar
  58   35   37 ar
  59   36   40 ar
  60   36   64 1
  61   37   38 ar
  62   37   65 1
  63   38   39 ar
  64   38   66 1
  65   39   40 ar
  66   39   41 1
  67   40   67 1
  68   41   42 1
  69   41   46 1
  70   41   68 1
  71   42   43 1
  72   42   69 1
  73   42   70 1
  74   43   44 1
  75   43   71 1
  76   43   72 1
  77   44   45 1
  78   44   73 1
  79   44   74 1
  80   45   46 1
  81   45   75 1
  82   45   76 1
  83   46   77 1
  84   46   78 1

#	End of record

