#	Name: ASD05143012
#	Creating user name:	WinNT
#	Creation time:	15. 06. 2019 20:57

#	Modifying user name:	WinNT
#	Modification time:	15. 06. 2019 20:57

#	Program:	/corina/corina34_cracker 3.40 0067  02.08.2006

@<TRIPOS>MOLECULE
ASD05143012
  41   43    0    0    0
SMALL
NO_CHARGES


@<TRIPOS>ATOM
   1 C1            -0.1740     1.3857     1.2684 C.ar    
   2 C2            -0.0442     0.0493     0.9075 C.ar    
   3 C3            -1.1121    -0.6242     0.3314 C.ar    
   4 C4            -2.3065     0.0299     0.1141 C.ar    
   5 C5            -2.4419     1.3713     0.4746 C.ar    
   6 C6            -1.3687     2.0452     1.0591 C.ar    
   7 O7             1.1317    -0.5990     1.1191 O.3     
   8 C8             1.1962    -1.9709     0.7247 C.3     
   9 F9             0.8677     2.0377     1.8295 F       
  10 C10           -3.7217     2.0756     0.2428 C.2     
  11 N11           -3.8847     3.4189     0.0579 N.pl3   
  12 N12           -5.2522     3.6602    -0.1264 N.2     
  13 C13           -5.8893     2.5185    -0.0568 C.2     
  14 C14           -4.9601     1.5022     0.1680 C.2     
  15 C15           -2.8676     4.3820     0.0538 C.ar    
  16 C16           -1.6919     4.1493    -0.6475 C.ar    
  17 C17           -0.6911     5.1011    -0.6500 C.ar    
  18 C18           -0.8589     6.2848     0.0449 C.ar    
  19 C19           -2.0283     6.5193     0.7447 C.ar    
  20 C20           -3.0352     5.5739     0.7464 C.ar    
  21 S21            0.4203     7.4965     0.0393 S.o2    
  22 O22            0.2331     8.2831     1.2078 O.2     
  23 O23            1.6278     6.8040    -0.2463 O.2     
  24 N24            0.1403     8.4989    -1.2489 N.am    
  25 C25           -7.3777     2.3322    -0.2018 C.3     
  26 F26           -7.8905     3.3185    -1.0511 F       
  27 F27           -7.6391     1.0689    -0.7429 F       
  28 H28           -1.0075    -1.6623     0.0523 H       
  29 H29           -3.1364    -0.4954    -0.3350 H       
  30 H30           -1.4699     3.0832     1.3397 H       
  31 H31            0.4448    -2.5416     1.2704 H       
  32 H32            1.0063    -2.0506    -0.3457 H       
  33 H33            2.1867    -2.3671     0.9484 H       
  34 H34           -5.1810     0.4501     0.2717 H       
  35 H35           -1.5601     3.2249    -1.1902 H       
  36 H36            0.2237     4.9206    -1.1951 H       
  37 H37           -2.1561     7.4444     1.2871 H       
  38 H38           -3.9483     5.7576     1.2931 H       
  39 H39           -0.6242     8.3452    -1.8258 H       
  40 H40            0.7408     9.2397    -1.4264 H       
  41 H41           -7.8510     2.4134     0.7767 H       
@<TRIPOS>BOND
   1    1    2 ar
   2    1    9 1
   3    1    6 ar
   4    2    3 ar
   5    2    7 1
   6    3    4 ar
   7    3   28 1
   8    4    5 ar
   9    4   29 1
  10    5    6 ar
  11    5   10 1
  12    6   30 1
  13    7    8 1
  14    8   31 1
  15    8   32 1
  16    8   33 1
  17   10   11 1
  18   10   14 2
  19   11   12 1
  20   11   15 1
  21   12   13 2
  22   13   14 1
  23   13   25 1
  24   14   34 1
  25   15   16 ar
  26   15   20 ar
  27   16   17 ar
  28   16   35 1
  29   17   18 ar
  30   17   36 1
  31   18   19 ar
  32   18   21 1
  33   19   20 ar
  34   19   37 1
  35   20   38 1
  36   21   22 2
  37   21   23 2
  38   21   24 am
  39   24   39 1
  40   24   40 1
  41   25   26 1
  42   25   27 1
  43   25   41 1

#	End of record

