#	Name: ASD09750015
#	Creating user name:	WinNT
#	Creation time:	15. 06. 2019 21:23

#	Modifying user name:	WinNT
#	Modification time:	15. 06. 2019 21:23

#	Program:	/corina/corina34_cracker 3.40 0067  02.08.2006

@<TRIPOS>MOLECULE
ASD09750015
 103  107    0    0    0
SMALL
NO_CHARGES


@<TRIPOS>ATOM
   1 C1            -2.1724     0.6062     0.1345 C.3     
   2 C2            -2.3952    -0.9027     0.0138 C.3     
   3 C3            -3.8769    -1.1802    -0.2475 C.3     
   4 C4            -4.7107    -0.6328     0.9128 C.3     
   5 C5            -4.4879     0.8761     1.0334 C.3     
   6 C6            -3.0062     1.1536     1.2947 C.3     
   7 C7            -0.6907     0.8837     0.3958 C.3     
   8 C8            -6.1924    -0.9103     0.6515 C.3     
   9 C9            -6.4152    -2.4192     0.5308 C.3     
  10 C10           -5.3660     2.8491    -0.0065 C.3     
  11 O11           -4.8852     1.5149    -0.1816 O.3     
  12 C12           -7.0261    -0.3629     1.8117 C.3     
  13 C13           -5.7545     3.4228    -1.3448 C.2     
  14 N14           -6.2383     4.6781    -1.4251 N.am    
  15 O15           -5.6317     2.7548    -2.3496 O.2     
  16 C16           -6.6214     5.2512    -2.7226 C.3     
  17 C17           -5.8920     6.5856    -2.9069 C.3     
  18 C18           -6.1842     7.4918    -1.7087 C.3     
  19 C19           -5.6665     6.8311    -0.4290 C.3     
  20 C20           -6.3986     5.4974    -0.2160 C.3     
  21 C21           -5.4852     8.8385    -1.9057 C.3     
  22 C22           -5.8772     9.7873    -0.7712 C.3     
  23 C23           -5.1783    11.1340    -0.9682 C.3     
  24 C24           -5.5703    12.0828     0.1662 C.3     
  25 C25           -4.7768    13.3863     0.0403 C.3     
  26 C26           -5.2170    14.3541     1.1410 C.3     
  27 N27           -6.6553    14.6213     1.0132 N.3     
  28 C28           -7.4406    13.3914     1.1779 C.3     
  29 C29           -7.0668    12.3949     0.0783 C.3     
  30 C30           -7.0629    15.5974     1.9158 C.ar    
  31 C31           -8.3966    15.9950     1.9536 C.ar    
  32 C32           -8.8031    16.9607     2.8456 C.ar    
  33 C33           -7.8754    17.5423     3.7148 C.ar    
  34 C34           -6.5371    17.1405     3.6747 C.ar    
  35 C35           -6.1377    16.1708     2.7837 C.ar    
  36 C36           -8.3078    18.5782     4.6720 C.2     
  37 N37           -9.4498    19.2607     4.4561 N.am    
  38 O38           -7.6339    18.8163     5.6557 O.2     
  39 C39          -10.2954    19.1618     3.2526 C.3     
  40 C40          -11.0668    20.5041     3.1986 C.3     
  41 C41          -11.3335    20.7708     4.7036 C.3     
  42 C42          -10.0618    20.2223     5.3847 C.3     
  43 C43          -10.4271    19.5369     6.6761 C.2     
  44 N44          -11.0148    20.2360     7.6673 N.am    
  45 O45          -10.1922    18.3562     6.8236 O.2     
  46 H46           -2.4754     1.0934    -0.7923 H       
  47 H47           -1.8012    -1.2927    -0.8127 H       
  48 H48           -2.0922    -1.3900     0.9406 H       
  49 H49           -4.1799    -0.6930    -1.1742 H       
  50 H50           -4.0356    -2.2552    -0.3334 H       
  51 H51           -4.4077    -1.1200     1.8395 H       
  52 H52           -5.0819     1.2661     1.8600 H       
  53 H53           -2.7032     0.6663     2.2215 H       
  54 H54           -2.8475     2.2286     1.3807 H       
  55 H55           -0.0967     0.4937    -0.4308 H       
  56 H56           -0.5320     1.9586     0.4818 H       
  57 H57           -0.3877     0.3964     1.3226 H       
  58 H58           -6.4954    -0.4231    -0.2753 H       
  59 H59           -6.1122    -2.9064     1.4576 H       
  60 H60           -7.4708    -2.6169     0.3447 H       
  61 H61           -5.8212    -2.8092    -0.2958 H       
  62 H62           -6.2356     2.8387     0.6506 H       
  63 H63           -4.5821     3.4624     0.4380 H       
  64 H64           -6.7232    -0.8501     2.7385 H       
  65 H65           -6.8675     0.7121     1.8977 H       
  66 H66           -8.0818    -0.5606     1.6255 H       
  67 H67           -6.3384     4.5666    -3.5223 H       
  68 H68           -7.6984     5.4173    -2.7451 H       
  69 H69           -4.8189     6.4073    -2.9750 H       
  70 H70           -6.2400     7.0673    -3.8207 H       
  71 H71           -7.2595     7.6496    -1.6265 H       
  72 H72           -4.5954     6.6504    -0.5205 H       
  73 H73           -5.8539     7.4874     0.4208 H       
  74 H74           -7.4565     5.6863    -0.0337 H       
  75 H75           -5.9661     4.9754     0.6376 H       
  76 H76           -4.4052     8.6916    -1.8997 H       
  77 H77           -5.7881     9.2688    -2.8603 H       
  78 H78           -6.9573     9.9342    -0.7772 H       
  79 H79           -5.5744     9.3570     0.1833 H       
  80 H80           -4.0983    10.9871    -0.9622 H       
  81 H81           -5.4812    11.5643    -1.9228 H       
  82 H82           -5.3507    11.6140     1.1255 H       
  83 H83           -3.7124    13.1760     0.1449 H       
  84 H84           -4.9657    13.8345    -0.9352 H       
  85 H85           -5.0152    13.9110     2.1163 H       
  86 H86           -4.6641    15.2886     1.0454 H       
  87 H87           -7.2283    12.9528     2.1530 H       
  88 H88           -8.5026    13.6267     1.1091 H       
  89 H89           -7.2916    12.8274    -0.8966 H       
  90 H90           -7.6384    11.4762     0.2100 H       
  91 H91           -9.1128    15.5454     1.2818 H       
  92 H92           -9.8377    17.2693     2.8740 H       
  93 H93           -5.8180    17.5879     4.3449 H       
  94 H94           -5.1039    15.8597     2.7524 H       
  95 H95           -9.6767    19.0438     2.3629 H       
  96 H96          -10.9911    18.3279     3.3452 H       
  97 H97          -10.4504    21.2918     2.7655 H       
  98 H98          -12.0020    20.3954     2.6493 H       
  99 H99          -11.4448    21.8385     4.8922 H       
 100 H100         -12.2140    20.2245     5.0420 H       
 101 H101          -9.3647    21.0372     5.5794 H       
 102 H102         -11.2027    21.1803     7.5493 H       
 103 H103         -11.2499    19.7948     8.4985 H       
@<TRIPOS>BOND
   1    1    2 1
   2    1    7 1
   3    1    6 1
   4    1   46 1
   5    2    3 1
   6    2   47 1
   7    2   48 1
   8    3    4 1
   9    3   49 1
  10    3   50 1
  11    4    5 1
  12    4    8 1
  13    4   51 1
  14    5    6 1
  15    5   11 1
  16    5   52 1
  17    6   53 1
  18    6   54 1
  19    7   55 1
  20    7   56 1
  21    7   57 1
  22    8    9 1
  23    8   12 1
  24    8   58 1
  25    9   59 1
  26    9   60 1
  27    9   61 1
  28   10   11 1
  29   10   13 1
  30   10   62 1
  31   10   63 1
  32   12   64 1
  33   12   65 1
  34   12   66 1
  35   13   14 am
  36   13   15 2
  37   14   16 1
  38   14   20 1
  39   16   17 1
  40   16   67 1
  41   16   68 1
  42   17   18 1
  43   17   69 1
  44   17   70 1
  45   18   19 1
  46   18   21 1
  47   18   71 1
  48   19   20 1
  49   19   72 1
  50   19   73 1
  51   20   74 1
  52   20   75 1
  53   21   22 1
  54   21   76 1
  55   21   77 1
  56   22   23 1
  57   22   78 1
  58   22   79 1
  59   23   24 1
  60   23   80 1
  61   23   81 1
  62   24   25 1
  63   24   29 1
  64   24   82 1
  65   25   26 1
  66   25   83 1
  67   25   84 1
  68   26   27 1
  69   26   85 1
  70   26   86 1
  71   27   28 1
  72   27   30 1
  73   28   29 1
  74   28   87 1
  75   28   88 1
  76   29   89 1
  77   29   90 1
  78   30   31 ar
  79   30   35 ar
  80   31   32 ar
  81   31   91 1
  82   32   33 ar
  83   32   92 1
  84   33   34 ar
  85   33   36 1
  86   34   35 ar
  87   34   93 1
  88   35   94 1
  89   36   37 am
  90   36   38 2
  91   37   39 1
  92   37   42 1
  93   39   40 1
  94   39   95 1
  95   39   96 1
  96   40   41 1
  97   40   97 1
  98   40   98 1
  99   41   42 1
 100   41   99 1
 101   41  100 1
 102   42   43 1
 103   42  101 1
 104   43   44 am
 105   43   45 2
 106   44  102 1
 107   44  103 1

#	End of record

