#	Name: ASD08070251
#	Creating user name:	WinNT
#	Creation time:	15. 06. 2019 21:14

#	Modifying user name:	WinNT
#	Modification time:	15. 06. 2019 21:14

#	Program:	/corina/corina34_cracker 3.40 0067  02.08.2006

@<TRIPOS>MOLECULE
ASD08070251
  35   37    0    0    0
SMALL
NO_CHARGES


@<TRIPOS>ATOM
   1 N1            -0.0452     1.3248    -0.2573 N.am    
   2 C2            -0.0050    -0.0224    -0.2585 C.2     
   3 O3            -1.0312    -0.6611    -0.3896 O.2     
   4 N4             1.1728    -0.6615    -0.1144 N.am    
   5 C5             1.2043    -2.0583    -0.0171 C.ar    
   6 C6             2.3918    -2.7452    -0.2399 C.ar    
   7 C7             2.4196    -4.1233    -0.1432 C.ar    
   8 C8             1.1557     2.1239     0.0090 C.3     
   9 C9             0.0509    -2.7588     0.3076 C.ar    
  10 C10            0.0844    -4.1367     0.4029 C.ar    
  11 C11            1.2661    -4.8190     0.1747 C.ar    
  12 Cl12           1.3041    -6.5504     0.2955 Cl      
  13 Cl13           3.8384    -1.8728    -0.6398 Cl      
  14 C14            0.8188     3.2454     0.9593 C.ar    
  15 C15           -0.4787     3.5694     1.2861 C.ar    
  16 C16           -1.6691     2.8247     0.7417 C.3     
  17 C17           -1.2951     2.0540    -0.5294 C.3     
  18 C18            1.8705     3.9643     1.5114 C.ar    
  19 C19            1.6258     5.0070     2.3810 C.ar    
  20 C20            0.3230     5.3386     2.7043 C.ar    
  21 C21           -0.7223     4.6230     2.1591 C.ar    
  22 H22            1.9987    -0.1541    -0.0781 H       
  23 H23            3.3419    -4.6580    -0.3161 H       
  24 H24            1.9223     1.4894     0.4539 H       
  25 H25            1.5288     2.5408    -0.9264 H       
  26 H26           -0.8720    -2.2270     0.4859 H       
  27 H27           -0.8130    -4.6818     0.6559 H       
  28 H28           -2.0289     2.1241     1.4952 H       
  29 H29           -2.4609     3.5363     0.5078 H       
  30 H30           -1.1488     2.7516    -1.3541 H       
  31 H31           -2.0869     1.3478    -0.7789 H       
  32 H32            2.8879     3.7056     1.2579 H       
  33 H33            2.4484     5.5616     2.8078 H       
  34 H34            0.1245     6.1557     3.3820 H       
  35 H35           -1.7392     4.8842     2.4122 H       
@<TRIPOS>BOND
   1    1    2 am
   2    1    8 1
   3    1   17 1
   4    2    3 2
   5    2    4 am
   6    4    5 1
   7    4   22 1
   8    5    6 ar
   9    5    9 ar
  10    6    7 ar
  11    6   13 1
  12    7   11 ar
  13    7   23 1
  14    8   14 1
  15    8   24 1
  16    8   25 1
  17    9   10 ar
  18    9   26 1
  19   10   11 ar
  20   10   27 1
  21   11   12 1
  22   14   15 ar
  23   14   18 ar
  24   15   16 1
  25   15   21 ar
  26   16   17 1
  27   16   28 1
  28   16   29 1
  29   17   30 1
  30   17   31 1
  31   18   19 ar
  32   18   32 1
  33   19   20 ar
  34   19   33 1
  35   20   21 ar
  36   20   34 1
  37   21   35 1

#	End of record

