#	Name: ASD01915393
#	Creating user name:	WinNT
#	Creation time:	15. 06. 2019 20:05

#	Modifying user name:	WinNT
#	Modification time:	15. 06. 2019 20:05

#	Program:	/corina/corina34_cracker 3.40 0067  02.08.2006

@<TRIPOS>MOLECULE
ASD01915393
  48   51    0    0    0
SMALL
NO_CHARGES


@<TRIPOS>ATOM
   1 C1            -0.0168     1.3884     0.0097 C.ar    
   2 C2             0.0021    -0.0041     0.0020 C.ar    
   3 N3             1.1535    -0.6628    -0.0121 N.ar    
   4 C4             2.3098    -0.0323    -0.0197 C.ar    
   5 C5             2.3650     1.3499    -0.0128 C.ar    
   6 C6             1.1842     2.0777     0.0019 C.ar    
   7 C7             3.6952     2.0582    -0.0212 C.3     
   8 N8             4.7565     1.1339     0.4039 N.am    
   9 C9             5.7202     0.9803    -0.7011 C.3     
  10 C10            5.5643     2.2697    -1.5454 C.3     
  11 C11            4.0356     2.5188    -1.4542 C.3     
  12 C12            4.8358     0.5280     1.6052 C.2     
  13 O13            3.9810     0.7297     2.4450 O.2     
  14 C14            5.9650    -0.3839     1.9018 C.ar    
  15 C15           -1.2764    -0.7572     0.0102 C.ar    
  16 C16           -1.2862    -2.1545     0.0028 C.ar    
  17 C17           -2.4980    -2.8156     0.0113 C.ar    
  18 N18           -3.6342    -2.1462     0.0262 N.ar    
  19 C19           -3.6688    -0.8275     0.0336 C.ar    
  20 C20           -2.5035    -0.0884     0.0314 C.ar    
  21 C21           -2.5228    -4.3224     0.0029 C.3     
  22 C22            1.2079     3.5845     0.0093 C.3     
  23 C23            6.0490    -1.0117     3.1436 C.ar    
  24 N24            7.0576    -1.8244     3.4033 N.ar    
  25 C25            7.9850    -2.0420     2.4880 C.ar    
  26 C26            7.9046    -1.4183     1.2510 C.ar    
  27 N27            6.8989    -0.6104     0.9818 N.ar    
  28 H28           -0.9550     1.9233     0.0170 H       
  29 H29            3.2272    -0.6021    -0.0312 H       
  30 H30            3.6617     2.9175     0.6487 H       
  31 H31            6.7351     0.9025    -0.3113 H       
  32 H32            5.4745     0.1030    -1.2995 H       
  33 H33            6.1217     3.0957    -1.1037 H       
  34 H34            5.8717     2.1005    -2.5774 H       
  35 H35            3.5022     1.9166    -2.1897 H       
  36 H36            3.8089     3.5771    -1.5833 H       
  37 H37           -0.3595    -2.7090    -0.0098 H       
  38 H38           -4.6219    -0.3196     0.0454 H       
  39 H39           -2.5392     0.9910     0.0379 H       
  40 H40           -2.5184    -4.6915     1.0285 H       
  41 H41           -3.4239    -4.6681    -0.5038 H       
  42 H42           -1.6442    -4.6974    -0.5220 H       
  43 H43            1.2040     3.9529    -1.0165 H       
  44 H44            0.3286     3.9591     0.5333 H       
  45 H45            2.1082     3.9312     0.5165 H       
  46 H46            5.2911    -0.8336     3.8921 H       
  47 H47            8.8084    -2.7070     2.7033 H       
  48 H48            8.6652    -1.5988     0.5058 H       
@<TRIPOS>BOND
   1    1    2 ar
   2    1    6 ar
   3    1   28 1
   4    2    3 ar
   5    2   15 1
   6    3    4 ar
   7    4    5 ar
   8    4   29 1
   9    5    6 ar
  10    5    7 1
  11    6   22 1
  12    7    8 1
  13    7   11 1
  14    7   30 1
  15    8    9 1
  16    8   12 am
  17    9   10 1
  18    9   31 1
  19    9   32 1
  20   10   11 1
  21   10   33 1
  22   10   34 1
  23   11   35 1
  24   11   36 1
  25   12   13 2
  26   12   14 1
  27   14   23 ar
  28   14   27 ar
  29   15   16 ar
  30   15   20 ar
  31   16   17 ar
  32   16   37 1
  33   17   18 ar
  34   17   21 1
  35   18   19 ar
  36   19   20 ar
  37   19   38 1
  38   20   39 1
  39   21   40 1
  40   21   41 1
  41   21   42 1
  42   22   43 1
  43   22   44 1
  44   22   45 1
  45   23   24 ar
  46   23   46 1
  47   24   25 ar
  48   25   26 ar
  49   25   47 1
  50   26   27 ar
  51   26   48 1

#	End of record

