#	Name: ASD00170030
#	Creating user name:	WinNT
#	Creation time:	15. 06. 2019 18:31

#	Modifying user name:	WinNT
#	Modification time:	15. 06. 2019 18:31

#	Program:	/corina/corina34_cracker 3.40 0067  02.08.2006

@<TRIPOS>MOLECULE
ASD00170030
  36   39    0    0    0
SMALL
NO_CHARGES


@<TRIPOS>ATOM
   1 C1            -0.0177     1.4116    -0.0055 C.ar    
   2 C2             0.0014    -0.0045    -0.0144 C.ar    
   3 C3            -1.2127    -0.7118     0.0041 C.ar    
   4 C4            -2.4012    -0.0494     0.0301 C.ar    
   5 C5            -2.4667     1.3376     0.0398 C.ar    
   6 C6            -1.3064     2.0997     0.0180 C.ar    
   7 C7             1.1899     2.1200    -0.0249 C.ar    
   8 C8             2.3702     1.4387    -0.0522 C.ar    
   9 C9             2.3924     0.0460    -0.0610 C.ar    
  10 C10            1.2370    -0.6740    -0.0422 C.ar    
  11 C11           -1.3732     3.5737     0.0287 C.2     
  12 C12           -2.6688     4.2482    -0.0614 C.2     
  13 O13           -0.3498     4.2292     0.1125 O.2     
  14 C14           -3.5202     4.5131     1.0963 C.2     
  15 C15           -4.6462     5.1371     0.7668 C.2     
  16 S16           -4.7165     5.4286    -0.9709 S.3     
  17 C17           -3.2030     4.7000    -1.2377 C.2     
  18 N18           -2.5990     4.5754    -2.4726 N.pl3   
  19 C19           -3.4734     4.2677     2.6020 C.3     
  20 C20           -4.5269     5.2259     3.1930 C.3     
  21 C21           -5.4971     5.3904     2.0058 C.3     
  22 H22           -1.2024    -1.7917    -0.0027 H       
  23 H23           -3.3191    -0.6184     0.0432 H       
  24 H24           -3.4288     1.8279     0.0606 H       
  25 H25            1.1862     3.2000    -0.0186 H       
  26 H26            3.3009     1.9863    -0.0675 H       
  27 H27            3.3406    -0.4706    -0.0831 H       
  28 H28            1.2697    -1.7534    -0.0495 H       
  29 H29           -3.0720     4.8500    -3.2738 H       
  30 H30           -1.7016     4.2132    -2.5393 H       
  31 H31           -3.7340     3.2333     2.8258 H       
  32 H32           -2.4841     4.5037     2.9940 H       
  33 H33           -5.0293     4.7745     4.0484 H       
  34 H34           -4.0773     6.1808     3.4652 H       
  35 H35           -5.9042     6.4013     1.9860 H       
  36 H36           -6.3017     4.6578     2.0694 H       
@<TRIPOS>BOND
   1    1    2 ar
   2    1    7 ar
   3    1    6 ar
   4    2    3 ar
   5    2   10 ar
   6    3    4 ar
   7    3   22 1
   8    4    5 ar
   9    4   23 1
  10    5    6 ar
  11    5   24 1
  12    6   11 1
  13    7    8 ar
  14    7   25 1
  15    8    9 ar
  16    8   26 1
  17    9   10 ar
  18    9   27 1
  19   10   28 1
  20   11   12 1
  21   11   13 2
  22   12   14 1
  23   12   17 2
  24   14   15 2
  25   14   19 1
  26   15   16 1
  27   15   21 1
  28   16   17 1
  29   17   18 1
  30   18   29 1
  31   18   30 1
  32   19   20 1
  33   19   31 1
  34   19   32 1
  35   20   21 1
  36   20   33 1
  37   20   34 1
  38   21   35 1
  39   21   36 1

#	End of record

