#	Name: ASD01940618
#	Creating user name:	WinNT
#	Creation time:	15. 06. 2019 20:12

#	Modifying user name:	WinNT
#	Modification time:	15. 06. 2019 20:12

#	Program:	/corina/corina34_cracker 3.40 0067  02.08.2006

@<TRIPOS>MOLECULE
ASD01940618
  49   51    0    0    0
SMALL
NO_CHARGES


@<TRIPOS>ATOM
   1 C1            -0.6007     1.2079     0.5847 C.ar    
   2 C2            -0.8864    -0.1617     0.4735 C.ar    
   3 C3             0.1006    -1.0945     0.7423 C.ar    
   4 C4             1.3681    -0.6809     1.1202 C.ar    
   5 C5             1.6619     0.6674     1.2334 C.ar    
   6 C6             0.6877     1.6182     0.9687 C.ar    
   7 N7             0.9841     2.9707     1.0821 N.pl3   
   8 C8             2.0399     3.3894     1.8990 C.ar    
   9 C9             2.4823     2.5777     2.9344 C.ar    
  10 C10            3.5253     2.9937     3.7397 C.ar    
  11 C11            4.1293     4.2174     3.5158 C.ar    
  12 C12            3.6918     5.0301     2.4847 C.ar    
  13 C13            2.6526     4.6177     1.6717 C.ar    
  14 F14            2.2290     5.4085     0.6615 F       
  15 I15            5.7097     4.8427     4.7407 I       
  16 F16            2.3236    -1.5998     1.3806 F       
  17 C17           -1.6401     2.2067     0.2956 C.2     
  18 O18           -2.3697     2.6004     1.1858 O.2     
  19 N19           -1.7846     2.6861    -0.9557 N.am    
  20 O20           -2.1261    -0.5702     0.1042 O.3     
  21 C21           -2.3300    -1.9005    -0.0829 C.ar    
  22 C22           -2.6401    -2.7131     0.9962 C.ar    
  23 C23           -2.8478    -4.0718     0.8015 C.ar    
  24 C24           -2.7441    -4.6127    -0.4740 C.ar    
  25 C25           -2.4344    -3.7993    -1.5471 C.ar    
  26 C26           -2.2334    -2.4457    -1.3561 C.ar    
  27 N27           -3.1600    -4.8941     1.8865 N.am    
  28 S28           -4.1769    -6.1849     1.6814 S.o2    
  29 N29           -3.3682    -7.3061     0.7696 N.am    
  30 O30           -4.3534    -6.7648     2.9667 O.2     
  31 O31           -5.2571    -5.7219     0.8827 O.2     
  32 C32           -2.7512    -2.1228     2.3784 C.3     
  33 H33           -0.1182    -2.1487     0.6574 H       
  34 H34            2.6528     0.9796     1.5286 H       
  35 H35            0.4590     3.6248     0.5950 H       
  36 H36            2.0115     1.6219     3.1108 H       
  37 H37            3.8692     2.3622     4.5456 H       
  38 H38            4.1652     5.9854     2.3126 H       
  39 H39           -1.2028     2.3721    -1.6656 H       
  40 H40           -2.4703     3.3450    -1.1465 H       
  41 H41           -2.9054    -5.6696    -0.6269 H       
  42 H42           -2.3535    -4.2217    -2.5378 H       
  43 H43           -1.9965    -1.8117    -2.1977 H       
  44 H44           -2.7812    -4.7091     2.7601 H       
  45 H45           -2.4641    -7.1251     0.4681 H       
  46 H46           -3.7985    -8.1437     0.5370 H       
  47 H47           -3.7785    -1.8050     2.5563 H       
  48 H48           -2.4698    -2.8729     3.1175 H       
  49 H49           -2.0855    -1.2636     2.4611 H       
@<TRIPOS>BOND
   1    1    2 ar
   2    1    6 ar
   3    1   17 1
   4    2    3 ar
   5    2   20 1
   6    3    4 ar
   7    3   33 1
   8    4    5 ar
   9    4   16 1
  10    5    6 ar
  11    5   34 1
  12    6    7 1
  13    7    8 1
  14    7   35 1
  15    8    9 ar
  16    8   13 ar
  17    9   10 ar
  18    9   36 1
  19   10   11 ar
  20   10   37 1
  21   11   12 ar
  22   11   15 1
  23   12   13 ar
  24   12   38 1
  25   13   14 1
  26   17   18 2
  27   17   19 am
  28   19   39 1
  29   19   40 1
  30   20   21 1
  31   21   22 ar
  32   21   26 ar
  33   22   23 ar
  34   22   32 1
  35   23   27 1
  36   23   24 ar
  37   24   25 ar
  38   24   41 1
  39   25   26 ar
  40   25   42 1
  41   26   43 1
  42   27   28 am
  43   27   44 1
  44   28   29 am
  45   28   30 2
  46   28   31 2
  47   29   45 1
  48   29   46 1
  49   32   47 1
  50   32   48 1
  51   32   49 1

#	End of record

