#	Name: ASD00310272
#	Creating user name:	WinNT
#	Creation time:	15. 06. 2019 18:34

#	Modifying user name:	WinNT
#	Modification time:	15. 06. 2019 18:34

#	Program:	/corina/corina34_cracker 3.40 0067  02.08.2006

@<TRIPOS>MOLECULE
ASD00310272
  23   24    0    0    0
SMALL
NO_CHARGES


@<TRIPOS>ATOM
   1 C1            -0.0188     1.5336     0.0105 C.3     
   2 C2             0.0021    -0.0041     0.0020 C.3     
   3 C3             1.3815     0.0967    -0.6702 C.3     
   4 C4             1.5179     1.4762    -0.0045 C.3     
   5 O5            -0.5818     2.1049    -1.1721 O.3     
   6 C6            -0.5886     2.1226     1.2751 C.ar    
   7 C7             0.0081     1.8519     2.4952 C.ar    
   8 C8            -0.5158     2.3939     3.6562 C.ar    
   9 C9            -1.6344     3.2050     3.5965 C.ar    
  10 C10           -2.2294     3.4740     2.3772 C.ar    
  11 C11           -1.7030     2.9375     1.2168 C.ar    
  12 F12            1.1005     1.0591     2.5523 F       
  13 Br13          -2.3508     3.9458     5.1820 Br      
  14 H14            0.0329    -0.4458     0.9980 H       
  15 H15           -0.7629    -0.4476    -0.6353 H       
  16 H16            2.0998    -0.6373    -0.3050 H       
  17 H17            1.3349     0.1396    -1.7584 H       
  18 H18            1.9766     2.2276    -0.6471 H       
  19 H19            1.9632     1.4391     0.9897 H       
  20 H20           -0.5977     3.0718    -1.1727 H       
  21 H21           -0.0514     2.1831     4.6083 H       
  22 H22           -3.1031     4.1072     2.3311 H       
  23 H23           -2.1655     3.1521     0.2648 H       
@<TRIPOS>BOND
   1    1    2 1
   2    1    4 1
   3    1    5 1
   4    1    6 1
   5    2    3 1
   6    2   14 1
   7    2   15 1
   8    3    4 1
   9    3   16 1
  10    3   17 1
  11    4   18 1
  12    4   19 1
  13    5   20 1
  14    6    7 ar
  15    6   11 ar
  16    7    8 ar
  17    7   12 1
  18    8    9 ar
  19    8   21 1
  20    9   10 ar
  21    9   13 1
  22   10   11 ar
  23   10   22 1
  24   11   23 1

#	End of record

