#	Name: ASD01900772
#	Creating user name:	WinNT
#	Creation time:	15. 06. 2019 19:52

#	Modifying user name:	WinNT
#	Modification time:	15. 06. 2019 19:52

#	Program:	/corina/corina34_cracker 3.40 0067  02.08.2006

@<TRIPOS>MOLECULE
ASD01900772
  35   38    0    0    0
SMALL
NO_CHARGES


@<TRIPOS>ATOM
   1 C1             0.5618     0.6710    -1.4583 C.ar    
   2 C2             0.8823    -0.6762    -1.4697 C.ar    
   3 C3             2.1162    -1.1107    -1.0289 C.ar    
   4 C4             3.0515    -0.1933    -0.5685 C.ar    
   5 C5             2.7213     1.1686    -0.5552 C.ar    
   6 O6             4.2661    -0.6042    -0.1456 O.3     
   7 C7             5.0737     0.1971     0.5713 C.2     
   8 C8             4.8844     1.5379     0.6621 C.2     
   9 C9             3.7343     2.1277    -0.0455 C.2     
  10 C10            6.2100    -0.4052     1.2877 C.2     
  11 N11            7.0423     0.3761     2.0190 N.2     
  12 C12            8.0555    -0.1149     2.6662 C.2     
  13 N13            8.3377    -1.4531     2.6433 N.pl3   
  14 C14            7.5271    -2.3065     1.9155 C.2     
  15 C15            6.4267    -1.7713     1.2202 C.2     
  16 C16            1.4785     1.5977    -1.0017 C.ar    
  17 C17            9.3203    -2.1948     3.2255 C.2     
  18 C18            9.1525    -3.4959     2.8849 C.2     
  19 C19            8.0277    -3.5868     2.0597 C.2     
  20 C20            1.1327     3.0644    -0.9891 C.3     
  21 F21           -0.2519     3.2160    -0.8585 F       
  22 F22            1.7735     3.6854     0.0884 F       
  23 F23            1.5556     3.6535    -2.1855 F       
  24 N24            3.6122     3.4228    -0.2148 N.2     
  25 O25            3.3072     3.9438    -1.4957 O.3     
  26 H26           -0.4051     0.9981    -1.8113 H       
  27 H27            0.1591    -1.3945    -1.8268 H       
  28 H28            2.3541    -2.1641    -1.0419 H       
  29 H29            5.5582     2.1557     1.2372 H       
  30 H30            8.6900     0.5486     3.2351 H       
  31 H31            5.7731    -2.4082     0.6426 H       
  32 H32           10.1067    -1.8084     3.8570 H       
  33 H33            9.7786    -4.3189     3.1967 H       
  34 H34            7.6260    -4.4870     1.6184 H       
  35 H35            3.3166     4.9097    -1.5399 H       
@<TRIPOS>BOND
   1    1    2 ar
   2    1   16 ar
   3    1   26 1
   4    2    3 ar
   5    2   27 1
   6    3    4 ar
   7    3   28 1
   8    4    5 ar
   9    4    6 1
  10    5   16 ar
  11    5    9 1
  12    6    7 1
  13    7    8 2
  14    7   10 1
  15    8    9 1
  16    8   29 1
  17    9   24 2
  18   10   11 1
  19   10   15 2
  20   11   12 2
  21   12   13 1
  22   12   30 1
  23   13   14 1
  24   13   17 1
  25   14   15 1
  26   14   19 2
  27   15   31 1
  28   16   20 1
  29   17   18 2
  30   17   32 1
  31   18   19 1
  32   18   33 1
  33   19   34 1
  34   20   21 1
  35   20   22 1
  36   20   23 1
  37   24   25 1
  38   25   35 1

#	End of record

