#	Name: ASD03090248
#	Creating user name:	WinNT
#	Creation time:	15. 06. 2019 20:28

#	Modifying user name:	WinNT
#	Modification time:	15. 06. 2019 20:28

#	Program:	/corina/corina34_cracker 3.40 0067  02.08.2006

@<TRIPOS>MOLECULE
ASD03090248
  51   54    0    0    0
SMALL
NO_CHARGES


@<TRIPOS>ATOM
   1 N1            -0.0776     0.9197     1.4697 N.ar    
   2 C2             0.0836    -0.3926     1.5480 C.ar    
   3 C3             1.2771    -0.9854     1.1562 C.ar    
   4 C4             2.3083    -0.1754     0.6768 C.ar    
   5 C5             2.0901     1.2066     0.6127 C.ar    
   6 C6             0.8758     1.7148     1.0215 C.ar    
   7 C7             3.5981    -0.7617     0.2481 C.2     
   8 N8             5.6687    -3.4044    -0.7923 N.pl3   
   9 C9             4.8736    -4.5451    -0.9444 C.ar    
  10 C10            3.5246    -4.4169    -1.2482 C.ar    
  11 C11            2.7413    -5.5448    -1.3984 C.ar    
  12 C12            3.3003    -6.8023    -1.2464 C.ar    
  13 C13            4.6454    -6.9325    -0.9434 C.ar    
  14 C14            5.4333    -5.8079    -0.7975 C.ar    
  15 N15            3.8101    -2.0244    -0.0636 N.2     
  16 C16            5.0881    -2.1954    -0.4041 C.2     
  17 N17            5.7129    -1.0434    -0.3152 N.2     
  18 N18            4.7647    -0.0951     0.1015 N.pl3   
  19 C19            4.9961     1.3320     0.3387 C.3     
  20 C20            4.9583     2.0831    -0.9937 C.3     
  21 F21            2.5323    -7.9040    -1.3933 F       
  22 C22            5.1915     3.5746    -0.7451 C.3     
  23 O23            3.6824     1.8966    -1.6096 O.3     
  24 N24           -0.9529    -1.1853     2.0282 N.pl3   
  25 C25           -0.8247    -2.6446     2.0167 C.3     
  26 C26           -1.7388    -3.4414     2.9497 C.3     
  27 C27           -1.9898    -3.4517     1.4404 C.3     
  28 C28            5.2508    -8.3026    -0.7785 C.3     
  29 F29            6.6114    -8.1781    -0.4776 F       
  30 F30            4.6029    -8.9766     0.2622 F       
  31 F31            5.1003    -9.0251    -1.9670 F       
  32 H32            1.4055    -2.0558     1.2217 H       
  33 H33            2.8638     1.8659     0.2478 H       
  34 H34            0.7018     2.7797     0.9743 H       
  35 H35            6.6235    -3.4534    -0.9564 H       
  36 H36            3.0881    -3.4362    -1.3665 H       
  37 H37            1.6921    -5.4456    -1.6343 H       
  38 H38            6.4822    -5.9099    -0.5612 H       
  39 H39            4.2199     1.7214     0.9975 H       
  40 H40            5.9714     1.4692     0.8056 H       
  41 H41            5.7384     1.6978    -1.6503 H       
  42 H42            4.4114     3.9599    -0.0886 H       
  43 H43            6.1648     3.7168    -0.2754 H       
  44 H44            5.1646     4.1097    -1.6944 H       
  45 H45            3.5869     2.3461    -2.4605 H       
  46 H46           -1.7608    -0.7721     2.3707 H       
  47 H47            0.1828    -3.0268     1.8522 H       
  48 H48           -1.3329    -4.3480     3.3985 H       
  49 H49           -2.4356    -2.8799     3.5719 H       
  50 H50           -2.8517    -2.8968     1.0698 H       
  51 H51           -1.7490    -4.3650     0.8964 H       
@<TRIPOS>BOND
   1    1    2 ar
   2    1    6 ar
   3    2    3 ar
   4    2   24 1
   5    3    4 ar
   6    3   32 1
   7    4    5 ar
   8    4    7 1
   9    5    6 ar
  10    5   33 1
  11    6   34 1
  12    7   15 2
  13    7   18 1
  14    8    9 1
  15    8   16 1
  16    8   35 1
  17    9   10 ar
  18    9   14 ar
  19   10   11 ar
  20   10   36 1
  21   11   12 ar
  22   11   37 1
  23   12   13 ar
  24   12   21 1
  25   13   14 ar
  26   13   28 1
  27   14   38 1
  28   15   16 1
  29   16   17 2
  30   17   18 1
  31   18   19 1
  32   19   20 1
  33   19   39 1
  34   19   40 1
  35   20   22 1
  36   20   23 1
  37   20   41 1
  38   22   42 1
  39   22   43 1
  40   22   44 1
  41   23   45 1
  42   24   25 1
  43   24   46 1
  44   25   26 1
  45   25   27 1
  46   25   47 1
  47   26   27 1
  48   26   48 1
  49   26   49 1
  50   27   50 1
  51   27   51 1
  52   28   29 1
  53   28   30 1
  54   28   31 1

#	End of record

