#	Name: ASD08170337
#	Creating user name:	WinNT
#	Creation time:	15. 06. 2019 21:17

#	Modifying user name:	WinNT
#	Modification time:	15. 06. 2019 21:17

#	Program:	/corina/corina34_cracker 3.40 0067  02.08.2006

@<TRIPOS>MOLECULE
ASD08170337
  62   65    0    0    0
SMALL
NO_CHARGES


@<TRIPOS>ATOM
   1 C1            -0.0167     1.3792     0.0096 C.ar    
   2 C2             0.0021    -0.0041     0.0020 C.ar    
   3 C3             1.2061    -0.6860    -0.0127 C.ar    
   4 C4             2.3967     0.0103    -0.0203 C.ar    
   5 C5             2.3851     1.4068    -0.0131 C.ar    
   6 C6             1.1668     2.0884     0.0021 C.ar    
   7 C7             1.2165    -2.1930    -0.0199 C.3     
   8 C8             1.2065    -2.6886    -1.4430 C.2     
   9 N9             1.2133    -4.0125    -1.6956 N.am    
  10 C10            1.2040    -4.4699    -3.0089 C.2     
  11 S11            1.2108    -6.1128    -3.4942 S.3     
  12 C12            1.1913    -5.5942    -5.1801 C.2     
  13 N13            1.1821    -4.2991    -5.1939 N.2     
  14 N14            1.1831    -3.7222    -4.0709 N.2     
  15 O15            1.1923    -1.8962    -2.3610 O.2     
  16 C16            3.6173     2.1363    -0.0205 C.1     
  17 N17            4.5949     2.7150    -0.0263 N.1     
  18 C18            1.1865    -6.4960    -6.3874 C.3     
  19 C19            2.6273    -6.7907    -6.8095 C.3     
  20 S20            2.6216    -7.8762    -8.2629 S.3     
  21 C21            4.3877    -8.1075    -8.6064 C.3     
  22 C22            4.5554    -9.0160    -9.8260 C.3     
  23 C23            6.0226    -9.2082   -10.1113 C.2     
  24 N24            6.7697   -10.1467    -9.6258 N.2     
  25 S25            6.9777    -8.2256   -11.1379 S.3     
  26 C26            8.3411    -9.2038   -10.7974 C.2     
  27 N27            7.9819   -10.1439    -9.9837 N.2     
  28 C28            9.7266    -9.0064   -11.3563 C.3     
  29 C29            9.8634    -9.7770   -12.6441 C.2     
  30 O30            8.9319   -10.4202   -13.0647 O.2     
  31 C31           11.1626    -9.7450   -13.4070 C.3     
  32 C32           11.0373   -10.5907   -14.6481 C.ar    
  33 C33           10.5976   -10.0231   -15.8262 C.ar    
  34 C34           11.3690   -11.9331   -14.6048 C.ar    
  35 C35           11.2578   -12.7168   -15.7399 C.ar    
  36 C36           10.8150   -12.1634   -16.9231 C.ar    
  37 C37           10.4826   -10.8080   -16.9751 C.ar    
  38 C38           10.0218   -10.2269   -18.2000 C.1     
  39 N39            9.6562    -9.7659   -19.1718 N.1     
  40 H40           -0.9599     1.9052     0.0169 H       
  41 H41           -0.9273    -0.5543     0.0079 H       
  42 H42            3.3357    -0.5231    -0.0314 H       
  43 H43            1.1507     3.1682     0.0074 H       
  44 H44            2.1139    -2.5525     0.4838 H       
  45 H45            0.3340    -2.5649     0.5007 H       
  46 H46            1.2247    -4.6463    -0.9613 H       
  47 H47            0.6818    -7.4302    -6.1412 H       
  48 H48            0.6614    -6.0042    -7.2062 H       
  49 H49            3.1321    -5.8565    -7.0558 H       
  50 H50            3.1525    -7.2825    -5.9907 H       
  51 H51            4.8484    -7.1404    -8.8077 H       
  52 H52            4.8688    -8.5664    -7.7426 H       
  53 H53            4.0947    -9.9832    -9.6247 H       
  54 H54            4.0743    -8.5571   -10.6897 H       
  55 H55            9.8936    -7.9464   -11.5477 H       
  56 H56           10.4630    -9.3662   -10.6376 H       
  57 H57           11.3930    -8.7177   -13.6892 H       
  58 H58           11.9624   -10.1375   -12.7791 H       
  59 H59           10.3426    -8.9742   -15.8596 H       
  60 H60           11.7166   -12.3713   -13.6809 H       
  61 H61           11.5187   -13.7640   -15.6992 H       
  62 H62           10.7294   -12.7760   -17.8085 H       
@<TRIPOS>BOND
   1    1    2 ar
   2    1    6 ar
   3    1   40 1
   4    2    3 ar
   5    2   41 1
   6    3    4 ar
   7    3    7 1
   8    4    5 ar
   9    4   42 1
  10    5    6 ar
  11    5   16 1
  12    6   43 1
  13    7    8 1
  14    7   44 1
  15    7   45 1
  16    8    9 am
  17    8   15 2
  18    9   10 1
  19    9   46 1
  20   10   11 1
  21   10   14 2
  22   11   12 1
  23   12   13 2
  24   12   18 1
  25   13   14 1
  26   16   17 3
  27   18   19 1
  28   18   47 1
  29   18   48 1
  30   19   20 1
  31   19   49 1
  32   19   50 1
  33   20   21 1
  34   21   22 1
  35   21   51 1
  36   21   52 1
  37   22   23 1
  38   22   53 1
  39   22   54 1
  40   23   24 2
  41   23   25 1
  42   24   27 1
  43   25   26 1
  44   26   27 2
  45   26   28 1
  46   28   29 1
  47   28   55 1
  48   28   56 1
  49   29   30 2
  50   29   31 1
  51   31   32 1
  52   31   57 1
  53   31   58 1
  54   32   33 ar
  55   32   34 ar
  56   33   37 ar
  57   33   59 1
  58   34   35 ar
  59   34   60 1
  60   35   36 ar
  61   35   61 1
  62   36   37 ar
  63   36   62 1
  64   37   38 1
  65   38   39 3

#	End of record

