#	Name: ASD01940118
#	Creating user name:	WinNT
#	Creation time:	15. 06. 2019 20:11

#	Modifying user name:	WinNT
#	Modification time:	15. 06. 2019 20:11

#	Program:	/corina/corina34_cracker 3.40 0067  02.08.2006

@<TRIPOS>MOLECULE
ASD01940118
  54   55    0    0    0
SMALL
NO_CHARGES


@<TRIPOS>ATOM
   1 C1            -0.9046     1.0101     0.5305 C.ar    
   2 C2            -1.4778     0.9902     1.7940 C.ar    
   3 C3            -2.8557     1.0105     1.9322 C.ar    
   4 C4            -3.6671     1.0508     0.8106 C.ar    
   5 C5            -3.1003     1.0710    -0.4584 C.ar    
   6 C6            -1.7159     1.0569    -0.6000 C.ar    
   7 N7            -1.1387     1.0776    -1.8808 N.am    
   8 S8            -0.2049    -0.1922    -2.3889 S.o2    
   9 O9             0.2583     0.2049    -3.6722 O.2     
  10 O10            0.7028    -0.4103    -1.3176 O.2     
  11 F11           -3.4096     0.9906     3.1642 F       
  12 F12           -5.0107     1.0701     0.9500 F       
  13 N13           -3.9218     1.1108    -1.5937 N.pl3   
  14 C14           -4.7486     0.0249    -1.8967 C.ar    
  15 C15           -6.0465     0.2413    -2.3492 C.ar    
  16 C16           -4.2747    -1.2720    -1.7525 C.ar    
  17 C17           -5.0943    -2.3433    -2.0528 C.ar    
  18 C18           -6.3852    -2.1258    -2.4971 C.ar    
  19 C19           -6.8605    -0.8354    -2.6476 C.ar    
  20 F20           -6.5106     1.5016    -2.4961 F       
  21 C21           -7.2750    -3.2974    -2.8238 C.3     
  22 C22           -1.3657    -1.5788    -2.5320 C.3     
  23 C23           -0.6749    -2.7523    -3.2296 C.3     
  24 N24            0.4901     0.9889     0.3926 N.pl3   
  25 C25            1.3384     0.7502     1.5629 C.3     
  26 C26           -1.6540    -3.9218    -3.3503 C.3     
  27 C27           -0.9632    -5.0953    -4.0479 C.3     
  28 O28            0.1022    -5.5774    -3.2266 O.3     
  29 C29           -1.9760    -6.2182    -4.2805 C.3     
  30 O30           -1.3616    -7.2652    -5.0343 O.3     
  31 H31           -0.8485     0.9584     2.6711 H       
  32 H32           -1.2871     1.8357    -2.4675 H       
  33 H33           -3.9165     1.8918    -2.1689 H       
  34 H34           -3.2662    -1.4436    -1.4062 H       
  35 H35           -4.7256    -3.3522    -1.9405 H       
  36 H36           -7.8695    -0.6691    -2.9949 H       
  37 H37           -7.8262    -3.5949    -1.9317 H       
  38 H38           -7.9776    -3.0127    -3.6070 H       
  39 H39           -6.6647    -4.1320    -3.1690 H       
  40 H40           -1.6887    -1.8864    -1.5374 H       
  41 H41           -2.2324    -1.2683    -3.1156 H       
  42 H42           -0.3520    -2.4446    -4.2241 H       
  43 H43            0.1918    -3.0627    -2.6460 H       
  44 H44            0.8936     1.1324    -0.4778 H       
  45 H45            2.3860     0.7698     1.2624 H       
  46 H46            1.1591     1.5270     2.3062 H       
  47 H47            1.1013    -0.2238     1.9909 H       
  48 H48           -1.9769    -4.2294    -2.3557 H       
  49 H49           -2.5206    -3.6113    -3.9339 H       
  50 H50           -0.5621    -4.7636    -5.0056 H       
  51 H51           -0.1822    -5.8898    -2.3567 H       
  52 H52           -2.3108    -6.6102    -3.3201 H       
  53 H53           -2.8314    -5.8275    -4.8316 H       
  54 H54           -1.9471    -8.0122    -5.2195 H       
@<TRIPOS>BOND
   1    1    2 ar
   2    1   24 1
   3    1    6 ar
   4    2    3 ar
   5    2   31 1
   6    3    4 ar
   7    3   11 1
   8    4    5 ar
   9    4   12 1
  10    5    6 ar
  11    5   13 1
  12    6    7 1
  13    7    8 am
  14    7   32 1
  15    8    9 2
  16    8   10 2
  17    8   22 1
  18   13   14 1
  19   13   33 1
  20   14   15 ar
  21   14   16 ar
  22   15   20 1
  23   15   19 ar
  24   16   17 ar
  25   16   34 1
  26   17   18 ar
  27   17   35 1
  28   18   19 ar
  29   18   21 1
  30   19   36 1
  31   21   37 1
  32   21   38 1
  33   21   39 1
  34   22   23 1
  35   22   40 1
  36   22   41 1
  37   23   26 1
  38   23   42 1
  39   23   43 1
  40   24   25 1
  41   24   44 1
  42   25   45 1
  43   25   46 1
  44   25   47 1
  45   26   27 1
  46   26   48 1
  47   26   49 1
  48   27   28 1
  49   27   29 1
  50   27   50 1
  51   28   51 1
  52   29   30 1
  53   29   52 1
  54   29   53 1
  55   30   54 1

#	End of record

