#	Name: ASD01913682
#	Creating user name:	WinNT
#	Creation time:	15. 06. 2019 20:02

#	Modifying user name:	WinNT
#	Modification time:	15. 06. 2019 20:02

#	Program:	/corina/corina34_cracker 3.40 0067  02.08.2006

@<TRIPOS>MOLECULE
ASD01913682
  44   45    0    0    0
SMALL
NO_CHARGES


@<TRIPOS>ATOM
   1 C1            -0.0187     1.5258     0.0104 C.3     
   2 C2             0.0021    -0.0041     0.0020 C.3     
   3 O3            -1.3386    -0.4987     0.0122 O.3     
   4 C4            -1.4978    -1.8443     0.0065 C.ar    
   5 N5            -0.4305    -2.6277    -0.0079 N.ar    
   6 C6            -0.5333    -3.9403    -0.0140 C.ar    
   7 C7            -1.7856    -4.5552    -0.0058 C.ar    
   8 C8            -2.9369    -3.7537     0.0095 C.ar    
   9 C9            -2.7809    -2.3831     0.0215 C.ar    
  10 C10           -1.8976    -6.0271    -0.0136 C.2     
  11 N11           -0.7849    -6.7875    -0.0288 N.am    
  12 O12           -2.9935    -6.5535    -0.0064 O.2     
  13 C13           -0.8960    -8.2482    -0.0365 C.3     
  14 C14            1.4167     2.0553    -0.0004 C.3     
  15 C15            1.3960     3.5852     0.0080 C.3     
  16 C16            0.3631    -8.8521    -0.6618 C.3     
  17 C17            0.2470   -10.3777    -0.6699 C.3     
  18 C18            0.0967   -10.8854     0.7656 C.3     
  19 C19           -1.1624   -10.2815     1.3908 C.3     
  20 C20           -1.0464    -8.7559     1.3989 C.3     
  21 H21           -0.5459     1.8868    -0.8726 H       
  22 H22           -0.5289     1.8773     0.9072 H       
  23 H23            0.5123    -0.3556    -0.8948 H       
  24 H24            0.5293    -0.3651     0.8851 H       
  25 H25            0.3603    -4.5467    -0.0258 H       
  26 H26           -3.9209    -4.1987     0.0161 H       
  27 H27           -3.6450    -1.7353     0.0338 H       
  28 H28            0.0895    -6.3675    -0.0346 H       
  29 H29           -1.7685    -8.5432    -0.6195 H       
  30 H30            1.9439     1.6943     0.8826 H       
  31 H31            1.9269     1.7038    -0.8972 H       
  32 H32            0.8688     3.9463    -0.8751 H       
  33 H33            0.8858     3.9367     0.9048 H       
  34 H34            2.4186     3.9625     0.0002 H       
  35 H35            0.4702    -8.4905    -1.6845 H       
  36 H36            1.2356    -8.5572    -0.0788 H       
  37 H37           -0.6255   -10.6727    -1.2529 H       
  38 H38            1.1440   -10.8080    -1.1153 H       
  39 H39            0.0140   -11.9722     0.7598 H       
  40 H40            0.9692   -10.5904     1.3485 H       
  41 H41           -2.0349   -10.5764     0.8079 H       
  42 H42           -1.2695   -10.6431     2.4135 H       
  43 H43           -0.1739    -8.4609     1.9819 H       
  44 H44           -1.9433    -8.3256     1.8444 H       
@<TRIPOS>BOND
   1    1    2 1
   2    1   14 1
   3    1   21 1
   4    1   22 1
   5    2    3 1
   6    2   23 1
   7    2   24 1
   8    3    4 1
   9    4    5 ar
  10    4    9 ar
  11    5    6 ar
  12    6    7 ar
  13    6   25 1
  14    7    8 ar
  15    7   10 1
  16    8    9 ar
  17    8   26 1
  18    9   27 1
  19   10   11 am
  20   10   12 2
  21   11   13 1
  22   11   28 1
  23   13   16 1
  24   13   20 1
  25   13   29 1
  26   14   15 1
  27   14   30 1
  28   14   31 1
  29   15   32 1
  30   15   33 1
  31   15   34 1
  32   16   17 1
  33   16   35 1
  34   16   36 1
  35   17   18 1
  36   17   37 1
  37   17   38 1
  38   18   19 1
  39   18   39 1
  40   18   40 1
  41   19   20 1
  42   19   41 1
  43   19   42 1
  44   20   43 1
  45   20   44 1

#	End of record

