#	Name: ASD05170043
#	Creating user name:	WinNT
#	Creation time:	15. 06. 2019 20:57

#	Modifying user name:	WinNT
#	Modification time:	15. 06. 2019 20:57

#	Program:	/corina/corina34_cracker 3.40 0067  02.08.2006

@<TRIPOS>MOLECULE
ASD05170043
  46   50    0    0    0
SMALL
NO_CHARGES


@<TRIPOS>ATOM
   1 C1            -0.0173     1.4248     0.0099 C.3     
   2 O2             0.0021    -0.0041     0.0020 O.3     
   3 C3            -1.1981    -0.6363     0.0101 C.ar    
   4 C4            -1.2429    -2.0296     0.0088 C.ar    
   5 C5            -2.4685    -2.6568     0.0169 C.ar    
   6 C6            -3.6401    -1.8743     0.0253 C.ar    
   7 C7            -4.9239    -2.6116     0.0265 C.ar    
   8 C8            -5.0165    -3.7674    -0.7571 C.ar    
   9 C9            -6.1921    -4.5073    -0.7692 C.ar    
  10 C10           -7.2782    -4.0982     0.0031 C.ar    
  11 C11           -7.1857    -2.9526     0.7676 C.ar    
  12 C12           -6.0206    -2.2054     0.7707 C.ar    
  13 C13           -5.9803    -0.9263     1.5653 C.3     
  14 C14           -6.8834    -0.8221     2.7943 C.3     
  15 C15           -5.3700    -0.9723     2.9652 C.3     
  16 N16           -5.7737     0.2788     0.7634 N.am    
  17 C17           -6.7974     1.3268     0.7566 C.3     
  18 C18           -4.6662     0.4367     0.0389 C.2     
  19 O19           -4.5949     1.4230    -0.6678 O.2     
  20 C20           -3.5232    -0.4895     0.0277 C.ar    
  21 N21           -2.3046     0.0713     0.0244 N.ar    
  22 C22           -6.2915    -5.7312    -1.6025 C.ar    
  23 C23           -7.4720    -6.4796    -1.6262 C.ar    
  24 C24           -7.5157    -7.6123    -2.4190 C.ar    
  25 C25           -6.3974    -7.9658    -3.1578 C.ar    
  26 F26           -6.4344    -9.0711    -3.9338 F       
  27 N27           -5.2963    -7.2375    -3.1145 N.ar    
  28 C28           -5.2122    -6.1486    -2.3772 C.ar    
  29 H29            1.0053     1.8021     0.0021 H       
  30 H30           -0.5445     1.7859    -0.8732 H       
  31 H31           -0.5275     1.7763     0.9067 H       
  32 H32           -0.3308    -2.6079     0.0013 H       
  33 H33           -2.5310    -3.7350     0.0164 H       
  34 H34           -4.1734    -4.0842    -1.3531 H       
  35 H35           -8.1904    -4.6764     0.0031 H       
  36 H36           -8.0273    -2.6373     1.3664 H       
  37 H37           -7.3209     0.1512     3.0164 H       
  38 H38           -7.5053    -1.6838     3.0365 H       
  39 H39           -4.9964    -1.9328     3.3202 H       
  40 H40           -4.8121    -0.0978     3.3001 H       
  41 H41           -6.5923     2.0402     1.5547 H       
  42 H42           -6.7834     1.8421    -0.2038 H       
  43 H43           -7.7780     0.8778     0.9138 H       
  44 H44           -8.3284    -6.1810    -1.0399 H       
  45 H45           -8.4110    -8.2148    -2.4615 H       
  46 H46           -4.2962    -5.5765    -2.3708 H       
@<TRIPOS>BOND
   1    1    2 1
   2    1   29 1
   3    1   30 1
   4    1   31 1
   5    2    3 1
   6    3   21 ar
   7    3    4 ar
   8    4    5 ar
   9    4   32 1
  10    5    6 ar
  11    5   33 1
  12    6   20 ar
  13    6    7 1
  14    7   12 ar
  15    7    8 ar
  16    8    9 ar
  17    8   34 1
  18    9   10 ar
  19    9   22 1
  20   10   11 ar
  21   10   35 1
  22   11   12 ar
  23   11   36 1
  24   12   13 1
  25   13   15 1
  26   13   14 1
  27   13   16 1
  28   14   15 1
  29   14   37 1
  30   14   38 1
  31   15   39 1
  32   15   40 1
  33   16   17 1
  34   16   18 am
  35   17   41 1
  36   17   42 1
  37   17   43 1
  38   18   19 2
  39   18   20 1
  40   20   21 ar
  41   22   28 ar
  42   22   23 ar
  43   23   24 ar
  44   23   44 1
  45   24   25 ar
  46   24   45 1
  47   25   26 1
  48   25   27 ar
  49   27   28 ar
  50   28   46 1

#	End of record

