#	Name: ASD03540261
#	Creating user name:	WinNT
#	Creation time:	15. 06. 2019 20:42

#	Modifying user name:	WinNT
#	Modification time:	15. 06. 2019 20:42

#	Program:	/corina/corina34_cracker 3.40 0067  02.08.2006

@<TRIPOS>MOLECULE
ASD03540261
  44   46    0    0    0
SMALL
NO_CHARGES


@<TRIPOS>ATOM
   1 C1            -0.0161     1.3365     0.0094 C.2     
   2 N2             0.0021    -0.0041     0.0020 N.am    
   3 C3             1.1931    -0.7075    -0.0132 C.2     
   4 C4             2.3928    -0.0051    -0.0209 C.2     
   5 C5             2.3194     1.4734    -0.0115 C.2     
   6 N6             1.1110     2.0661     0.0025 N.am    
   7 C7             3.5129    -0.8381    -0.0361 C.2     
   8 C8             3.2256    -2.1516    -0.0404 C.2     
   9 S9             1.4874    -2.3902    -0.0250 S.3     
  10 C10            4.2183    -3.2259    -0.0565 C.2     
  11 O11            5.4048    -2.9577    -0.0671 O.2     
  12 O12            3.8179    -4.5143    -0.0595 O.3     
  13 O13            3.3358     2.1426    -0.0175 O.2     
  14 O14           -1.0880     1.9101     0.0175 O.2     
  15 C15           -1.2652    -0.7390     0.0107 C.3     
  16 C16            1.0243     3.5285     0.0113 C.3     
  17 C17            1.0082     4.0223     1.4350 C.ar    
  18 C18            2.1958     4.3196     2.0769 C.ar    
  19 C19            2.1810     4.7725     3.3829 C.ar    
  20 C20            0.9786     4.9284     4.0468 C.ar    
  21 C21           -0.2091     4.6319     3.4046 C.ar    
  22 C22           -0.1945     4.1832     2.0972 C.ar    
  23 C23            4.8413    -5.5116    -0.0754 C.3     
  24 C24            4.1997    -6.9006    -0.0765 C.3     
  25 C25            5.2789    -7.9524    -0.0933 C.2     
  26 C26            5.3033    -8.8806     0.8307 C.2     
  27 H27            4.5244    -0.4597    -0.0438 H       
  28 H28           -2.0950    -0.0322     0.0228 H       
  29 H29           -1.3307    -1.3609    -0.8820 H       
  30 H30           -1.3130    -1.3705     0.8978 H       
  31 H31            1.8863     3.9467    -0.5086 H       
  32 H32            0.1095     3.8412    -0.4921 H       
  33 H33            3.1352     4.1978     1.5582 H       
  34 H34            3.1089     5.0042     3.8847 H       
  35 H35            0.9670     5.2816     5.0674 H       
  36 H36           -1.1485     4.7534     3.9234 H       
  37 H37           -1.1226     3.9550     1.5942 H       
  38 H38            5.4510    -5.3923    -0.9710 H       
  39 H39            5.4691    -5.4021     0.8089 H       
  40 H40            3.5900    -7.0200     0.8191 H       
  41 H41            3.5719    -7.0102    -0.9607 H       
  42 H42            6.0322    -7.9408    -0.8671 H       
  43 H43            4.5500    -8.8922     1.6046 H       
  44 H44            6.0767    -9.6344     0.8187 H       
@<TRIPOS>BOND
   1    1    2 am
   2    1    6 am
   3    1   14 2
   4    2    3 1
   5    2   15 1
   6    3    4 2
   7    3    9 1
   8    4    5 1
   9    4    7 1
  10    5    6 am
  11    5   13 2
  12    6   16 1
  13    7    8 2
  14    7   27 1
  15    8    9 1
  16    8   10 1
  17   10   11 2
  18   10   12 1
  19   12   23 1
  20   15   28 1
  21   15   29 1
  22   15   30 1
  23   16   17 1
  24   16   31 1
  25   16   32 1
  26   17   18 ar
  27   17   22 ar
  28   18   19 ar
  29   18   33 1
  30   19   20 ar
  31   19   34 1
  32   20   21 ar
  33   20   35 1
  34   21   22 ar
  35   21   36 1
  36   22   37 1
  37   23   24 1
  38   23   38 1
  39   23   39 1
  40   24   25 1
  41   24   40 1
  42   24   41 1
  43   25   26 2
  44   25   42 1
  45   26   43 1
  46   26   44 1

#	End of record

