#	Name: ASD04880123
#	Creating user name:	WinNT
#	Creation time:	15. 06. 2019 20:52

#	Modifying user name:	WinNT
#	Modification time:	15. 06. 2019 20:52

#	Program:	/corina/corina34_cracker 3.40 0067  02.08.2006

@<TRIPOS>MOLECULE
ASD04880123
  30   32    0    0    0
SMALL
NO_CHARGES


@<TRIPOS>ATOM
   1 C1            -0.0143     1.3817     0.0534 C.ar    
   2 C2             0.0028     0.0001    -0.0070 C.ar    
   3 C3             1.2041    -0.6781    -0.0362 C.ar    
   4 C4             2.4051     0.0323    -0.0050 C.ar    
   5 C5             2.3833     1.4268     0.0556 C.ar    
   6 C6             1.1740     2.0944     0.0847 C.ar    
   7 C7             3.6948    -0.6889    -0.0354 C.2     
   8 N8             4.8490    -0.0015    -0.1445 N.am    
   9 O9             3.7146    -1.9026     0.0379 O.2     
  10 N10            4.9578     1.3727    -0.3473 N.2     
  11 C11            6.1708     1.8000    -0.4177 C.2     
  12 C12            7.1257     0.6393    -0.2529 C.3     
  13 C13            6.2001    -0.5787    -0.0624 C.3     
  14 C14            6.5676     3.2057    -0.6270 C.2     
  15 C15            7.8875     3.6997    -0.7089 C.2     
  16 N16            7.8270     4.9901    -0.8984 N.2     
  17 N17            6.4830     5.3776    -0.9462 N.pl3   
  18 C18            5.7183     4.2799    -0.7848 C.2     
  19 F19            1.1498     3.4439     0.1433 F       
  20 H20           -0.9574     1.9076     0.0718 H       
  21 H21           -0.9267    -0.5495    -0.0312 H       
  22 H22            1.2150    -1.7570    -0.0827 H       
  23 H23            3.3091     1.9822     0.0800 H       
  24 H24            7.7406     0.5204    -1.1450 H       
  25 H25            7.7517     0.7813     0.6280 H       
  26 H26            6.3675    -1.0390     0.9114 H       
  27 H27            6.3512    -1.3041    -0.8618 H       
  28 H28            8.7903     3.1125    -0.6284 H       
  29 H29            6.1574     6.2819    -1.0771 H       
  30 H30            4.6388     4.2485    -0.7742 H       
@<TRIPOS>BOND
   1    1    2 ar
   2    1    6 ar
   3    1   20 1
   4    2    3 ar
   5    2   21 1
   6    3    4 ar
   7    3   22 1
   8    4    5 ar
   9    4    7 1
  10    5    6 ar
  11    5   23 1
  12    6   19 1
  13    7    8 am
  14    7    9 2
  15    8   10 1
  16    8   13 1
  17   10   11 2
  18   11   12 1
  19   11   14 1
  20   12   13 1
  21   12   24 1
  22   12   25 1
  23   13   26 1
  24   13   27 1
  25   14   15 1
  26   14   18 2
  27   15   16 2
  28   15   28 1
  29   16   17 1
  30   17   18 1
  31   17   29 1
  32   18   30 1

#	End of record

