#	Name: ASD05323005
#	Creating user name:	WinNT
#	Creation time:	15. 06. 2019 20:59

#	Modifying user name:	WinNT
#	Modification time:	15. 06. 2019 20:59

#	Program:	/corina/corina34_cracker 3.40 0067  02.08.2006

@<TRIPOS>MOLECULE
ASD05323005
  69   72    0    0    0
SMALL
NO_CHARGES


@<TRIPOS>ATOM
   1 C1             0.0638     1.4217    -0.0331 C.3     
   2 C2             0.0363    -0.1080    -0.0141 C.3     
   3 P3             1.7931     1.9981    -0.0551 P.3     
   4 O4             2.4932     1.5424    -1.4315 O.3     
   5 O5             1.8250     3.6039     0.0572 O.3     
   6 O6             2.5241     1.4089     1.0889 O.2     
   7 O7            -3.7324    -2.5418     0.5470 O.3     
   8 C8            -2.9015    -3.1545     1.5546 C.3     
   9 O9            -1.5998    -2.5622     1.4124 O.3     
  10 C10           -1.4719    -2.1377     0.0463 C.3     
  11 C11           -2.8577    -2.4341    -0.5998 C.3     
  12 O12           -2.0770    -0.2551    -1.2327 O.3     
  13 C13           -1.4151    -0.5918     0.0044 C.3     
  14 C14           -3.2019    -1.1400    -1.3599 C.3     
  15 C15           -3.4628    -2.8638     2.9479 C.3     
  16 C16           -2.8208    -4.6648     1.3233 C.3     
  17 C17           -2.4325    -1.9149    -3.5235 C.2     
  18 N18           -2.5920    -2.2094    -4.8255 N.am    
  19 C19           -3.7894    -2.0334    -5.4229 C.2     
  20 C20           -4.9085    -1.5155    -4.6197 C.2     
  21 C21           -4.6825    -1.2353    -3.2995 C.2     
  22 N22           -3.4406    -1.4415    -2.7735 N.am    
  23 C23           -6.2355    -1.3042    -5.2205 C.2     
  24 C24           -6.4088    -1.4710    -6.5426 C.2     
  25 C25           -7.7611    -1.3995    -7.1232 C.ar    
  26 C26           -7.9452    -1.5725    -8.4978 C.ar    
  27 C27           -9.2140    -1.5042    -9.0340 C.ar    
  28 C28          -10.3032    -1.2651    -8.2147 C.ar    
  29 C29          -10.1288    -1.0928    -6.8527 C.ar    
  30 C30           -8.8667    -1.1641    -6.3013 C.ar    
  31 O31           -3.9404    -2.2972    -6.6014 O.2     
  32 O32           -1.3446    -2.0871    -3.0087 O.2     
  33 C33            3.8796     1.7527    -1.7063 C.3     
  34 C34            4.2135     1.2031    -3.0946 C.3     
  35 C35            3.0371     4.3522     0.1709 C.3     
  36 C36            2.7092     5.8441     0.2570 C.3     
  37 H37           -0.6437    -2.6199    -0.4730 H       
  38 H38           -2.8607    -3.3256    -1.2269 H       
  39 H39           -0.4511     1.7833    -0.9231 H       
  40 H40           -0.4357     1.8051     0.8566 H       
  41 H41            0.5357    -0.4914    -0.9038 H       
  42 H42            0.5512    -0.4696     0.8759 H       
  43 H43           -1.9506    -0.1660     0.8530 H       
  44 H44           -4.0875    -0.6784    -0.9232 H       
  45 H45           -4.4629    -3.2890     3.0328 H       
  46 H46           -2.8134    -3.3093     3.7015 H       
  47 H47           -3.5121    -1.7859     3.1021 H       
  48 H48           -2.4166    -4.8591     0.3299 H       
  49 H49           -2.1704    -5.1131     2.0743 H       
  50 H50           -3.8180    -5.0980     1.4010 H       
  51 H51           -1.8423    -2.5497    -5.3384 H       
  52 H52           -5.4801    -0.8534    -2.6795 H       
  53 H53           -7.0700    -1.0150    -4.5988 H       
  54 H54           -5.5568    -1.6575    -7.1795 H       
  55 H55           -7.0960    -1.7589    -9.1385 H       
  56 H56           -9.3577    -1.6374   -10.0961 H       
  57 H57          -11.2944    -1.2123    -8.6403 H       
  58 H58          -10.9836    -0.9065    -6.2195 H       
  59 H59           -8.7326    -1.0343    -5.2375 H       
  60 H60            4.0982     2.8202    -1.6759 H       
  61 H61            4.4808     1.2373    -0.9573 H       
  62 H62            5.2710     1.3635    -3.3042 H       
  63 H63            3.9949     0.1357    -3.1250 H       
  64 H64            3.6123     1.7185    -3.8436 H       
  65 H65            3.5708     4.0450     1.0703 H       
  66 H66            3.6616     4.1672    -0.7031 H       
  67 H67            2.1756     6.1513    -0.6424 H       
  68 H68            2.0847     6.0291     1.1310 H       
  69 H69            3.6338     6.4149     0.3437 H       
@<TRIPOS>BOND
   1    1    2 1
   2    1    3 1
   3    1   39 1
   4    1   40 1
   5    2   13 1
   6    2   41 1
   7    2   42 1
   8    3    4 1
   9    3    5 1
  10    3    6 2
  11    4   33 1
  12    5   35 1
  13    7    8 1
  14    7   11 1
  15    8    9 1
  16    8   15 1
  17    8   16 1
  18    9   10 1
  19   10   11 1
  20   10   37 1
  21   10   13 1
  22   11   38 1
  23   11   14 1
  24   12   13 1
  25   12   14 1
  26   13   43 1
  27   14   22 1
  28   14   44 1
  29   15   45 1
  30   15   46 1
  31   15   47 1
  32   16   48 1
  33   16   49 1
  34   16   50 1
  35   17   18 am
  36   17   22 am
  37   17   32 2
  38   18   19 am
  39   18   51 1
  40   19   20 1
  41   19   31 2
  42   20   21 2
  43   20   23 1
  44   21   22 1
  45   21   52 1
  46   23   24 2
  47   23   53 1
  48   24   25 1
  49   24   54 1
  50   25   26 ar
  51   25   30 ar
  52   26   27 ar
  53   26   55 1
  54   27   28 ar
  55   27   56 1
  56   28   29 ar
  57   28   57 1
  58   29   30 ar
  59   29   58 1
  60   30   59 1
  61   33   34 1
  62   33   60 1
  63   33   61 1
  64   34   62 1
  65   34   63 1
  66   34   64 1
  67   35   36 1
  68   35   65 1
  69   35   66 1
  70   36   67 1
  71   36   68 1
  72   36   69 1

#	End of record

