#	Name: ASD01910208
#	Creating user name:	WinNT
#	Creation time:	15. 06. 2019 19:55

#	Modifying user name:	WinNT
#	Modification time:	15. 06. 2019 19:55

#	Program:	/corina/corina34_cracker 3.40 0067  02.08.2006

@<TRIPOS>MOLECULE
ASD01910208
  38   41    0    0    0
SMALL
NO_CHARGES


@<TRIPOS>ATOM
   1 C1            -2.0438     1.4584     0.7664 C.ar    
   2 C2            -2.0355    -0.0196     0.7763 C.2     
   3 N3            -1.1558    -0.6938     0.0094 N.am    
   4 C4            -1.0813    -2.0881     0.0915 C.ar    
   5 C5            -2.2316    -2.8325     0.3011 C.ar    
   6 C6            -2.1519    -4.2227     0.3822 C.ar    
   7 C7            -0.9143    -4.8550     0.2518 C.ar    
   8 C8             0.2254    -4.1047     0.0433 C.ar    
   9 C9             0.1457    -2.7277    -0.0429 C.ar    
  10 C10           -3.3740    -5.0238     0.6061 C.2     
  11 N11           -3.4093    -6.3289     0.6976 N.2     
  12 C12           -4.6937    -6.7175     0.9037 C.ar    
  13 C13           -5.4692    -5.5470     0.9348 C.ar    
  14 O14           -4.6130    -4.5174     0.7515 O.3     
  15 C15           -5.3105    -7.9597     1.0731 C.ar    
  16 C16           -6.6716    -8.0251     1.2688 C.ar    
  17 C17           -7.4336    -6.8662     1.2984 C.ar    
  18 C18           -6.8386    -5.6327     1.1327 C.ar    
  19 O19           -2.8222    -0.6272     1.4761 O.2     
  20 C20           -2.9536     2.1597     1.5595 C.ar    
  21 C21           -2.9560     3.5392     1.5456 C.ar    
  22 C22           -2.0593     4.2276     0.7479 C.ar    
  23 C23           -1.1551     3.5386    -0.0410 C.ar    
  24 C24           -1.1379     2.1592    -0.0317 C.ar    
  25 H25           -0.5744    -0.2120    -0.5995 H       
  26 H26           -3.1863    -2.3378     0.4016 H       
  27 H27           -0.8484    -5.9311     0.3144 H       
  28 H28            1.1820    -4.5958    -0.0574 H       
  29 H29            1.0408    -2.1459    -0.2065 H       
  30 H30           -4.7219    -8.8650     1.0502 H       
  31 H31           -7.1493    -8.9848     1.3999 H       
  32 H32           -8.5006    -6.9302     1.4523 H       
  33 H33           -7.4387    -4.7351     1.1570 H       
  34 H34           -3.6543     1.6235     2.1823 H       
  35 H35           -3.6596     4.0830     2.1584 H       
  36 H36           -2.0653     5.3075     0.7406 H       
  37 H37           -0.4583     4.0820    -0.6619 H       
  38 H38           -0.4315     1.6226    -0.6476 H       
@<TRIPOS>BOND
   1    1    2 1
   2    1   20 ar
   3    1   24 ar
   4    2    3 am
   5    2   19 2
   6    3    4 1
   7    3   25 1
   8    4    5 ar
   9    4    9 ar
  10    5    6 ar
  11    5   26 1
  12    6    7 ar
  13    6   10 1
  14    7    8 ar
  15    7   27 1
  16    8    9 ar
  17    8   28 1
  18    9   29 1
  19   10   11 2
  20   10   14 1
  21   11   12 1
  22   12   13 ar
  23   12   15 ar
  24   13   14 1
  25   13   18 ar
  26   15   16 ar
  27   15   30 1
  28   16   17 ar
  29   16   31 1
  30   17   18 ar
  31   17   32 1
  32   18   33 1
  33   20   21 ar
  34   20   34 1
  35   21   22 ar
  36   21   35 1
  37   22   23 ar
  38   22   36 1
  39   23   24 ar
  40   23   37 1
  41   24   38 1

#	End of record

