#	Name: ASD03330228
#	Creating user name:	WinNT
#	Creation time:	15. 06. 2019 20:36

#	Modifying user name:	WinNT
#	Modification time:	15. 06. 2019 20:36

#	Program:	/corina/corina34_cracker 3.40 0067  02.08.2006

@<TRIPOS>MOLECULE
ASD03330228
  51   53    0    0    0
SMALL
NO_CHARGES


@<TRIPOS>ATOM
   1 C1            -0.6685     0.5748     0.2355 C.3     
   2 N2            -0.5966    -0.8803     0.0428 N.3     
   3 C3            -0.0293    -1.2162    -1.2757 C.3     
   4 C4             1.2462    -0.4322    -1.4464 C.2     
   5 N5             1.5862     0.6374    -0.6677 N.pl3   
   6 C6             0.7436     1.1461     0.4181 C.3     
   7 C7             2.2484    -0.6117    -2.3412 C.2     
   8 N8             3.1863     0.3355    -2.1061 N.2     
   9 C9             2.7944     1.0897    -1.0999 C.2     
  10 C10            3.5375     2.2295    -0.5385 C.2     
  11 S11            3.2083     2.9926     1.0116 S.3     
  12 C12            2.3063    -1.6515    -3.3835 C.2     
  13 O13            1.3962    -2.4504    -3.4968 O.2     
  14 O14            5.7203    -2.2086    -5.3364 O.2     
  15 C15            4.8633    -3.0231    -5.6069 C.2     
  16 C16            3.4252    -2.7511    -5.2479 C.3     
  17 N17            3.3677    -1.7173    -4.2116 N.am    
  18 C18            2.6717    -2.2707    -6.4899 C.3     
  19 C19            2.7305    -3.3510    -7.5717 C.3     
  20 C20            1.2119    -1.9932    -6.1251 C.3     
  21 C21            3.3191    -0.9876    -7.0147 C.3     
  22 N22            5.1971    -4.1715    -6.2284 N.am    
  23 C23            6.5801    -4.3980    -6.6554 C.3     
  24 C24            4.5228     4.1343     0.7639 C.2     
  25 C25            5.1132     3.8963    -0.4123 C.2     
  26 C26            4.5819     2.8481    -1.1313 C.2     
  27 H27           -1.1348     1.0332    -0.6366 H       
  28 H28           -1.2652     0.7939     1.1210 H       
  29 H29           -0.0711    -1.3178     0.7847 H       
  30 H30            0.1851    -2.2839    -1.3235 H       
  31 H31           -0.7358    -0.9461    -2.0606 H       
  32 H32            0.7081     2.2347     0.3772 H       
  33 H33            1.1483     0.8265     1.3784 H       
  34 H34            2.9646    -3.6658    -4.8747 H       
  35 H35            4.0935    -1.0801    -4.1213 H       
  36 H36            2.2553    -4.2602    -7.2035 H       
  37 H37            2.2071    -3.0025    -8.4621 H       
  38 H38            3.7710    -3.5600    -7.8203 H       
  39 H39            1.1700    -1.2235    -5.3544 H       
  40 H40            0.6751    -1.6509    -7.0099 H       
  41 H41            0.7507    -2.9073    -5.7513 H       
  42 H42            4.3590    -1.1853    -7.2745 H       
  43 H43            2.7823    -0.6454    -7.8994 H       
  44 H44            3.2772    -0.2180    -6.2439 H       
  45 H45            4.5217    -4.8479    -6.3930 H       
  46 H46            6.6569    -5.3735    -7.1356 H       
  47 H47            6.8743    -3.6214    -7.3613 H       
  48 H48            7.2381    -4.3678    -5.7869 H       
  49 H49            4.8099     4.9110     1.4572 H       
  50 H50            5.9481     4.4804    -0.7704 H       
  51 H51            4.9648     2.5498    -2.0961 H       
@<TRIPOS>BOND
   1    1    2 1
   2    1    6 1
   3    1   27 1
   4    1   28 1
   5    2    3 1
   6    2   29 1
   7    3    4 1
   8    3   30 1
   9    3   31 1
  10    4    5 1
  11    4    7 2
  12    5    6 1
  13    5    9 1
  14    6   32 1
  15    6   33 1
  16    7    8 1
  17    7   12 1
  18    8    9 2
  19    9   10 1
  20   10   11 1
  21   10   26 2
  22   11   24 1
  23   12   13 2
  24   12   17 am
  25   14   15 2
  26   15   22 am
  27   15   16 1
  28   16   17 1
  29   16   18 1
  30   16   34 1
  31   17   35 1
  32   18   19 1
  33   18   20 1
  34   18   21 1
  35   19   36 1
  36   19   37 1
  37   19   38 1
  38   20   39 1
  39   20   40 1
  40   20   41 1
  41   21   42 1
  42   21   43 1
  43   21   44 1
  44   22   23 1
  45   22   45 1
  46   23   46 1
  47   23   47 1
  48   23   48 1
  49   24   25 2
  50   24   49 1
  51   25   26 1
  52   25   50 1
  53   26   51 1

#	End of record

