#	Name: ASD01150428
#	Creating user name:	WinNT
#	Creation time:	15. 06. 2019 19:04

#	Modifying user name:	WinNT
#	Modification time:	15. 06. 2019 19:04

#	Program:	/corina/corina34_cracker 3.40 0067  02.08.2006

@<TRIPOS>MOLECULE
ASD01150428
  48   50    0    0    0
SMALL
NO_CHARGES


@<TRIPOS>ATOM
   1 C1             0.4930     1.3906    -0.9476 C.ar    
   2 C2             0.4649     0.0096    -0.9224 C.ar    
   3 C3             1.1897    -0.6822     0.0316 C.ar    
   4 C4             1.9486     0.0119     0.9680 C.ar    
   5 C5             1.9782     1.3983     0.9438 C.ar    
   6 C6             1.2497     2.0889    -0.0148 C.ar    
   7 N7             1.2779     3.4882    -0.0421 N.am    
   8 C8             0.1237     4.1728    -0.1255 C.2     
   9 N9             0.1139     5.5185    -0.1536 N.am    
  10 C10            1.2746     6.2041    -0.0978 C.2     
  11 C11            2.5405     5.4613    -0.0065 C.2     
  12 N12            2.5071     4.1550     0.0235 N.2     
  13 O13            1.2740     7.4208    -0.1231 O.2     
  14 C14           -1.1582     6.2394    -0.2453 C.3     
  15 O15           -0.9291     3.5660    -0.1769 O.2     
  16 C16           -1.6802     6.5155     1.1412 C.ar    
  17 C17           -1.3302     7.6841     1.7915 C.ar    
  18 C18           -1.8090     7.9373     3.0633 C.ar    
  19 C19           -2.6381     7.0223     3.6846 C.ar    
  20 C20           -2.9888     5.8541     3.0340 C.ar    
  21 C21           -2.5135     5.6029     1.7604 C.ar    
  22 N22            2.6815    -0.6882     1.9344 N.am    
  23 C23            2.9424    -0.1170     3.1269 C.2     
  24 O24            2.6180     1.0335     3.3322 O.2     
  25 O25            3.7258     6.1226     0.0513 O.3     
  26 C26            4.9092     5.3265     0.1387 C.3     
  27 C27           -3.1592     7.2979     5.0715 C.3     
  28 C28            3.6372    -0.9079     4.2053 C.3     
  29 F29            1.1599    -2.0327     0.0540 F       
  30 H30           -0.0704     1.9279    -1.6961 H       
  31 H31           -0.1241    -0.5309    -1.6486 H       
  32 H32            2.5664     1.9396     1.6700 H       
  33 H33           -1.0045     7.1823    -0.7701 H       
  34 H34           -1.8808     5.6332    -0.7915 H       
  35 H35           -0.6824     8.3990     1.3061 H       
  36 H36           -1.5349     8.8500     3.5717 H       
  37 H37           -3.6363     5.1391     3.5195 H       
  38 H38           -2.7876     4.6903     1.2521 H       
  39 H39            3.0013    -1.5843     1.7455 H       
  40 H40            5.7828     5.9772     0.1780 H       
  41 H41            4.8704     4.7156     1.0406 H       
  42 H42            4.9772     4.6794    -0.7358 H       
  43 H43           -4.1054     7.8349     5.0041 H       
  44 H44           -3.3134     6.3548     5.5959 H       
  45 H45           -2.4360     7.9033     5.6178 H       
  46 H46            3.8486    -1.9128     3.8399 H       
  47 H47            4.5717    -0.4145     4.4727 H       
  48 H48            2.9940    -0.9683     5.0832 H       
@<TRIPOS>BOND
   1    1    2 ar
   2    1    6 ar
   3    1   30 1
   4    2    3 ar
   5    2   31 1
   6    3    4 ar
   7    3   29 1
   8    4    5 ar
   9    4   22 1
  10    5    6 ar
  11    5   32 1
  12    6    7 1
  13    7    8 am
  14    7   12 1
  15    8    9 am
  16    8   15 2
  17    9   10 am
  18    9   14 1
  19   10   11 1
  20   10   13 2
  21   11   12 2
  22   11   25 1
  23   14   16 1
  24   14   33 1
  25   14   34 1
  26   16   17 ar
  27   16   21 ar
  28   17   18 ar
  29   17   35 1
  30   18   19 ar
  31   18   36 1
  32   19   20 ar
  33   19   27 1
  34   20   21 ar
  35   20   37 1
  36   21   38 1
  37   22   23 am
  38   22   39 1
  39   23   24 2
  40   23   28 1
  41   25   26 1
  42   26   40 1
  43   26   41 1
  44   26   42 1
  45   27   43 1
  46   27   44 1
  47   27   45 1
  48   28   46 1
  49   28   47 1
  50   28   48 1

#	End of record

