#	Name: ASD01238015
#	Creating user name:	WinNT
#	Creation time:	15. 06. 2019 19:15

#	Modifying user name:	WinNT
#	Modification time:	15. 06. 2019 19:15

#	Program:	/corina/corina34_cracker 3.40 0067  02.08.2006

@<TRIPOS>MOLECULE
ASD01238015
  52   52    0    0    0
SMALL
NO_CHARGES


@<TRIPOS>ATOM
   1 C1            -0.2310     1.3801    -0.4805 C.ar    
   2 C2            -0.1278     0.0204    -0.2532 C.ar    
   3 C3             1.1171    -0.5771    -0.1894 C.ar    
   4 C4             2.2588     0.1849    -0.3535 C.ar    
   5 C5             2.1555     1.5444    -0.5817 C.ar    
   6 C6             0.9106     2.1422    -0.6441 C.ar    
   7 C7            -2.0118     2.4910     0.8399 C.3     
   8 C8            -1.5884     2.0304    -0.5563 C.3     
   9 C9             4.0328    -0.9290    -1.6804 C.3     
  10 C10            3.6160    -0.4663    -0.2829 C.3     
  11 C11           -3.0569     5.8629     2.2663 C.3     
  12 C12           -3.2185     4.5824     3.0879 C.3     
  13 C13           -3.9281     4.9070     4.4040 C.3     
  14 S14           -4.2037     3.3824     2.1498 S.o2    
  15 O15           -4.2072     2.1206     2.8034 O.2     
  16 O16           -5.4125     3.9757     1.6960 O.2     
  17 N17           -3.3313     3.1232     0.7663 N.am    
  18 C18            5.1729    -4.8502    -4.0464 C.3     
  19 C19            4.7552    -3.8970    -2.9248 C.3     
  20 C20            4.7990    -4.6353    -1.5854 C.3     
  21 S21            5.8939    -2.4859    -2.8750 S.o2    
  22 O22            7.1903    -2.9053    -2.4717 O.2     
  23 O23            5.7136    -1.6591    -4.0165 O.2     
  24 N24            5.3522    -1.5621    -1.6119 N.am    
  25 H25           -1.0197    -0.5749    -0.1250 H       
  26 H26            1.1978    -1.6392    -0.0111 H       
  27 H27            3.0474     2.1399    -0.7091 H       
  28 H28            0.8300     3.2043    -0.8220 H       
  29 H29           -2.0578     1.6308     1.5079 H       
  30 H30           -1.2858     3.2088     1.2215 H       
  31 H31           -1.5423     2.8905    -1.2242 H       
  32 H32           -2.3144     1.3125    -0.9378 H       
  33 H33            3.3045    -1.6469    -2.0578 H       
  34 H34            4.0764    -0.0698    -2.3497 H       
  35 H35            4.3443     0.2516     0.0944 H       
  36 H36            3.5724    -1.3255     0.3863 H       
  37 H37           -4.0392     6.2854     2.0549 H       
  38 H38           -2.4649     6.5840     2.8300 H       
  39 H39           -2.5514     5.6316     1.3287 H       
  40 H40           -2.2362     4.1599     3.2994 H       
  41 H41           -4.9104     5.3295     4.1926 H       
  42 H42           -4.0433     3.9948     4.9893 H       
  43 H43           -3.3361     5.6281     4.9677 H       
  44 H44           -3.6940     3.3900    -0.0929 H       
  45 H45            4.4886    -5.6981    -4.0764 H       
  46 H46            5.1417    -4.3242    -5.0006 H       
  47 H47            6.1860    -5.2072    -3.8613 H       
  48 H48            3.7421    -3.5400    -3.1099 H       
  49 H49            5.7899    -5.0654    -1.4399 H       
  50 H50            4.5844    -3.9356    -0.7777 H       
  51 H51            4.0539    -5.4309    -1.5845 H       
  52 H52            5.9084    -1.4402    -0.8267 H       
@<TRIPOS>BOND
   1    1    2 ar
   2    1    6 ar
   3    1    8 1
   4    2    3 ar
   5    2   25 1
   6    3    4 ar
   7    3   26 1
   8    4    5 ar
   9    4   10 1
  10    5    6 ar
  11    5   27 1
  12    6   28 1
  13    7    8 1
  14    7   17 1
  15    7   29 1
  16    7   30 1
  17    8   31 1
  18    8   32 1
  19    9   10 1
  20    9   24 1
  21    9   33 1
  22    9   34 1
  23   10   35 1
  24   10   36 1
  25   11   12 1
  26   11   37 1
  27   11   38 1
  28   11   39 1
  29   12   13 1
  30   12   14 1
  31   12   40 1
  32   13   41 1
  33   13   42 1
  34   13   43 1
  35   14   15 2
  36   14   16 2
  37   14   17 am
  38   17   44 1
  39   18   19 1
  40   18   45 1
  41   18   46 1
  42   18   47 1
  43   19   20 1
  44   19   21 1
  45   19   48 1
  46   20   49 1
  47   20   50 1
  48   20   51 1
  49   21   22 2
  50   21   23 2
  51   21   24 am
  52   24   52 1

#	End of record

