#	Name: ASD06660064
#	Creating user name:	WinNT
#	Creation time:	15. 06. 2019 21:07

#	Modifying user name:	WinNT
#	Modification time:	15. 06. 2019 21:07

#	Program:	/corina/corina34_cracker 3.40 0067  02.08.2006

@<TRIPOS>MOLECULE
ASD06660064
  77   80    0    0    0
SMALL
NO_CHARGES


@<TRIPOS>ATOM
   1 C1             0.0369     1.6483     0.9537 C.2     
   2 C2            -0.0035     0.2535     0.3847 C.3     
   3 C3            -1.0765     0.1773    -0.7033 C.3     
   4 O4             1.0518     2.3002     0.8840 O.2     
   5 O5            -1.0564     2.1687     1.5331 O.3     
   6 C6            -1.2083    -1.2462    -1.1801 C.ar    
   7 C7            -2.0750    -2.1113    -0.5377 C.ar    
   8 C8            -2.1983    -3.4165    -0.9721 C.ar    
   9 C9            -1.4504    -3.8599    -2.0554 C.ar    
  10 C10           -0.5807    -2.9881    -2.6984 C.ar    
  11 C11           -0.4665    -1.6827    -2.2624 C.ar    
  12 N12           -1.5723    -5.1793    -2.4970 N.3     
  13 C13           -0.6960    -5.4322    -3.6480 C.3     
  14 C14           -0.9614    -6.8369    -4.1940 C.3     
  15 C15           -0.6969    -7.8662    -3.0916 C.3     
  16 C16           -1.5872    -7.5515    -1.8862 C.3     
  17 C17           -1.3036    -6.1260    -1.4071 C.3     
  18 C18           -1.0189    -9.2681    -3.6130 C.3     
  19 N19           -0.6533   -10.2616    -2.6004 N.pl3   
  20 C20           -0.8548   -11.6142    -2.8493 C.ar    
  21 C21           -1.4042   -12.0177    -4.0622 C.ar    
  22 C22           -1.5992   -13.3667    -4.2966 C.ar    
  23 C23           -1.2370   -14.2706    -3.3064 C.ar    
  24 C24           -0.6971   -13.8004    -2.1264 C.ar    
  25 N25           -0.5173   -12.5075    -1.9322 N.ar    
  26 N26            1.3019    -0.0762    -0.1929 N.am    
  27 C27            2.3268    -0.4214     0.6113 C.2     
  28 C28            3.6689    -0.6660     0.0363 C.ar    
  29 C29            4.0790    -1.9693    -0.2487 C.ar    
  30 C30            5.3281    -2.1969    -0.7843 C.ar    
  31 C31            6.1832    -1.1242    -1.0414 C.ar    
  32 C32            5.7732     0.1787    -0.7565 C.ar    
  33 C33            4.5216     0.4069    -0.2260 C.ar    
  34 O34            2.1493    -0.5319     1.8084 O.2     
  35 C35            4.0765     1.8146     0.0764 C.3     
  36 C36            3.1561    -3.1276     0.0298 C.3     
  37 C37            2.2299    -3.3414    -1.1691 C.3     
  38 C38            7.5254    -1.3688    -1.6160 C.2     
  39 N39            8.3512    -0.3330    -1.8642 N.am    
  40 O40            7.8827    -2.5037    -1.8638 O.2     
  41 H41           -0.2394    -0.4559     1.1780 H       
  42 H42           -2.0302     0.5143    -0.2972 H       
  43 H43           -0.7918     0.8157    -1.5397 H       
  44 H44           -0.9822     3.0669     1.8836 H       
  45 H45           -2.6559    -1.7661     0.3047 H       
  46 H46           -2.8751    -4.0918    -0.4697 H       
  47 H47            0.0022    -3.3296    -3.5410 H       
  48 H48            0.2059    -1.0031    -2.7648 H       
  49 H49           -0.8972    -4.6960    -4.4262 H       
  50 H50            0.3454    -5.3547    -3.3355 H       
  51 H51           -1.9991    -6.9108    -4.5195 H       
  52 H52           -0.2999    -7.0301    -5.0385 H       
  53 H53            0.3504    -7.8192    -2.7931 H       
  54 H54           -2.6347    -7.6366    -2.1754 H       
  55 H55           -1.3727    -8.2552    -1.0819 H       
  56 H56           -0.2594    -6.0453    -1.1051 H       
  57 H57           -1.9461    -5.8938    -0.5577 H       
  58 H58           -2.0857    -9.3408    -3.8248 H       
  59 H59           -0.4536    -9.4549    -4.5260 H       
  60 H60           -0.2706    -9.9755    -1.7562 H       
  61 H61           -1.6750   -11.2875    -4.8104 H       
  62 H62           -2.0240   -13.7095    -5.2285 H       
  63 H63           -1.3766   -15.3308    -3.4580 H       
  64 H64           -0.4140   -14.4999    -1.3537 H       
  65 H65            1.4285    -0.0461    -1.1541 H       
  66 H66            5.6454    -3.2054    -1.0049 H       
  67 H67            6.4349     1.0088    -0.9554 H       
  68 H68            4.3607     2.0743     1.0961 H       
  69 H69            4.5532     2.5040    -0.6204 H       
  70 H70            2.9937     1.8836    -0.0278 H       
  71 H71            3.7452    -4.0290     0.1992 H       
  72 H72            2.5593    -2.9117     0.9160 H       
  73 H73            1.4979    -4.1127    -0.9297 H       
  74 H74            1.7137    -2.4097    -1.4001 H       
  75 H75            2.8184    -3.6542    -2.0316 H       
  76 H76            8.0660     0.5728    -1.6664 H       
  77 H77            9.2307    -0.4933    -2.2407 H       
@<TRIPOS>BOND
   1    1    2 1
   2    1    4 2
   3    1    5 1
   4    2    3 1
   5    2   26 1
   6    2   41 1
   7    3    6 1
   8    3   42 1
   9    3   43 1
  10    5   44 1
  11    6    7 ar
  12    6   11 ar
  13    7    8 ar
  14    7   45 1
  15    8    9 ar
  16    8   46 1
  17    9   10 ar
  18    9   12 1
  19   10   11 ar
  20   10   47 1
  21   11   48 1
  22   12   13 1
  23   12   17 1
  24   13   14 1
  25   13   49 1
  26   13   50 1
  27   14   15 1
  28   14   51 1
  29   14   52 1
  30   15   16 1
  31   15   18 1
  32   15   53 1
  33   16   17 1
  34   16   54 1
  35   16   55 1
  36   17   56 1
  37   17   57 1
  38   18   19 1
  39   18   58 1
  40   18   59 1
  41   19   20 1
  42   19   60 1
  43   20   21 ar
  44   20   25 ar
  45   21   22 ar
  46   21   61 1
  47   22   23 ar
  48   22   62 1
  49   23   24 ar
  50   23   63 1
  51   24   25 ar
  52   24   64 1
  53   26   27 am
  54   26   65 1
  55   27   28 1
  56   27   34 2
  57   28   29 ar
  58   28   33 ar
  59   29   30 ar
  60   29   36 1
  61   30   31 ar
  62   30   66 1
  63   31   32 ar
  64   31   38 1
  65   32   33 ar
  66   32   67 1
  67   33   35 1
  68   35   68 1
  69   35   69 1
  70   35   70 1
  71   36   37 1
  72   36   71 1
  73   36   72 1
  74   37   73 1
  75   37   74 1
  76   37   75 1
  77   38   39 am
  78   38   40 2
  79   39   76 1
  80   39   77 1

#	End of record

