#	Name: ASD03091509
#	Creating user name:	WinNT
#	Creation time:	15. 06. 2019 20:30

#	Modifying user name:	WinNT
#	Modification time:	15. 06. 2019 20:30

#	Program:	/corina/corina34_cracker 3.40 0067  02.08.2006

@<TRIPOS>MOLECULE
ASD03091509
  44   46    0    0    0
SMALL
NO_CHARGES


@<TRIPOS>ATOM
   1 C1            -0.0167     1.3781     0.0096 C.ar    
   2 C2             0.0021    -0.0041     0.0020 C.ar    
   3 C3             1.2084    -0.6789    -0.0132 C.ar    
   4 C4             2.3960     0.0285    -0.0212 C.ar    
   5 C5             2.3773     1.4107    -0.0145 C.ar    
   6 C6             1.1709     2.0855     0.0021 C.ar    
   7 C7             3.7112    -0.7071    -0.0368 C.3     
   8 C8             4.9809     0.1200    -0.2482 C.3     
   9 C9             4.6699    -0.4652     1.1308 C.3     
  10 C10            5.5058    -1.6290     1.5975 C.2     
  11 O11            5.4036    -2.7068     1.0508 O.2     
  12 N12            6.3668    -1.4722     2.6224 N.am    
  13 C13            7.1794    -2.6036     3.0761 C.3     
  14 C14            8.4441    -2.6988     2.2203 C.3     
  15 C15            7.5635    -2.3997     4.5190 C.ar    
  16 C16            7.5618    -3.4675     5.4036 C.ar    
  17 C17            7.9221    -3.2330     6.7216 C.ar    
  18 C18            8.2686    -1.9517     7.1073 C.ar    
  19 N19            8.2590    -0.9599     6.2385 N.ar    
  20 C20            7.9272    -1.1473     4.9758 C.ar    
  21 S21            8.7280    -1.6399     8.7796 S.o2    
  22 O22            8.0679    -2.6575     9.5199 O.2     
  23 C23           10.5239    -1.8936     8.8104 C.3     
  24 O24            8.4146    -0.2684     8.9792 O.2     
  25 H25           -0.9592     1.9054     0.0170 H       
  26 H26           -0.9258    -0.5567     0.0083 H       
  27 H27            1.2231    -1.7588    -0.0184 H       
  28 H28            3.3051     1.9634    -0.0201 H       
  29 H29            1.1563     3.1654     0.0077 H       
  30 H30            3.6849    -1.7080    -0.4677 H       
  31 H31            5.7901    -0.3368    -0.8179 H       
  32 H32            4.8649     1.1962    -0.3761 H       
  33 H33            4.3493     0.2261     1.9102 H       
  34 H34            6.4485    -0.6102     3.0597 H       
  35 H35            6.6053    -3.5251     2.9796 H       
  36 H36            8.1663    -2.8463     1.1766 H       
  37 H37            9.0183    -1.7773     2.3167 H       
  38 H38            9.0487    -3.5406     2.5578 H       
  39 H39            7.2859    -4.4582     5.0738 H       
  40 H40            7.9316    -4.0412     7.4380 H       
  41 H41            7.9312    -0.3105     4.2931 H       
  42 H42           11.0011    -1.1974     8.1208 H       
  43 H43           10.8982    -1.7196     9.8193 H       
  44 H44           10.7516    -2.9163     8.5098 H       
@<TRIPOS>BOND
   1    1    2 ar
   2    1    6 ar
   3    1   25 1
   4    2    3 ar
   5    2   26 1
   6    3    4 ar
   7    3   27 1
   8    4    5 ar
   9    4    7 1
  10    5    6 ar
  11    5   28 1
  12    6   29 1
  13    7    8 1
  14    7    9 1
  15    7   30 1
  16    8    9 1
  17    8   31 1
  18    8   32 1
  19    9   10 1
  20    9   33 1
  21   10   11 2
  22   10   12 am
  23   12   13 1
  24   12   34 1
  25   13   14 1
  26   13   15 1
  27   13   35 1
  28   14   36 1
  29   14   37 1
  30   14   38 1
  31   15   16 ar
  32   15   20 ar
  33   16   17 ar
  34   16   39 1
  35   17   18 ar
  36   17   40 1
  37   18   19 ar
  38   18   21 1
  39   19   20 ar
  40   20   41 1
  41   21   22 2
  42   21   23 1
  43   21   24 2
  44   23   42 1
  45   23   43 1
  46   23   44 1

#	End of record

