#	Name: ASD02030213
#	Creating user name:	WinNT
#	Creation time:	15. 06. 2019 20:14

#	Modifying user name:	WinNT
#	Modification time:	15. 06. 2019 20:14

#	Program:	/corina/corina34_cracker 3.40 0067  02.08.2006

@<TRIPOS>MOLECULE
ASD02030213
  46   49    0    0    0
SMALL
NO_CHARGES


@<TRIPOS>ATOM
   1 N1            -0.1810     1.8218     0.1667 N.am    
   2 C2             0.1201     0.4034    -0.0730 C.3     
   3 C3            -0.6241    -0.4388     0.9706 C.3     
   4 N4            -2.0291    -0.0091     1.0056 N.am    
   5 C5            -2.3302     1.4093     1.2454 C.3     
   6 C6            -1.5862     2.2505     0.2073 C.3     
   7 C7             0.8135     2.7124     0.3516 C.2     
   8 C8             2.2162     2.2506     0.4192 C.2     
   9 N9             3.2618     2.9928     0.7135 N.2     
  10 N10            2.6479     0.9957     0.1963 N.2     
  11 C11            3.9471     0.9975     0.3535 C.2     
  12 N12            4.3167     2.2538     0.6769 N.pl3   
  13 C13            5.6266     2.6827     0.9302 C.ar    
  14 O14            0.5570     3.8954     0.4628 O.2     
  15 C15           -3.0236    -0.8997     0.8208 C.2     
  16 C16           -2.7091    -2.2850     0.4606 C.2     
  17 O17           -4.1829    -0.5535     0.9530 O.2     
  18 C18            5.8733     4.0097     1.2545 C.ar    
  19 C19            7.1667     4.4296     1.5038 C.ar    
  20 C20            8.2141     3.5284     1.4298 C.ar    
  21 C21            7.9704     2.2061     1.1064 C.ar    
  22 C22            6.6796     1.7797     0.8629 C.ar    
  23 C23           -3.8365     1.6436     1.1150 C.3     
  24 Cl24           7.4770     6.0888     1.9095 Cl      
  25 C25           -3.6134    -3.2509     0.1208 C.2     
  26 O26           -1.4750    -2.8279     0.4008 O.3     
  27 C27           -1.5722    -4.1139     0.0374 C.2     
  28 C28           -2.8788    -4.4163    -0.1457 C.2     
  29 Br29          -3.5819    -6.0939    -0.6627 Br      
  30 Br30          -0.1230    -5.3076    -0.1878 Br      
  31 H31           -0.2111     0.1231    -1.0730 H       
  32 H32            1.1932     0.2365     0.0199 H       
  33 H33           -0.5705    -1.4923     0.6962 H       
  34 H34           -0.1715    -0.2900     1.9510 H       
  35 H35           -1.9991     1.6896     2.2453 H       
  36 H36           -1.6406     3.3037     0.4829 H       
  37 H37           -2.0367     2.1028    -0.7742 H       
  38 H38            4.6038     0.1468     0.2468 H       
  39 H39            5.0560     4.7132     1.3116 H       
  40 H40            9.2239     3.8583     1.6245 H       
  41 H41            8.7899     1.5051     1.0487 H       
  42 H42            6.4903     0.7468     0.6108 H       
  43 H43           -4.3559     1.1264     1.9217 H       
  44 H44           -4.0446     2.7119     1.1750 H       
  45 H45           -4.1822     1.2595     0.1553 H       
  46 H46           -4.6864    -3.1392     0.0679 H       
@<TRIPOS>BOND
   1    1    2 1
   2    1    7 am
   3    1    6 1
   4    2    3 1
   5    2   31 1
   6    2   32 1
   7    3    4 1
   8    3   33 1
   9    3   34 1
  10    4    5 1
  11    4   15 am
  12    5    6 1
  13    5   23 1
  14    5   35 1
  15    6   36 1
  16    6   37 1
  17    7    8 1
  18    7   14 2
  19    8    9 2
  20    8   10 1
  21    9   12 1
  22   10   11 2
  23   11   12 1
  24   11   38 1
  25   12   13 1
  26   13   18 ar
  27   13   22 ar
  28   15   16 1
  29   15   17 2
  30   16   26 1
  31   16   25 2
  32   18   19 ar
  33   18   39 1
  34   19   20 ar
  35   19   24 1
  36   20   21 ar
  37   20   40 1
  38   21   22 ar
  39   21   41 1
  40   22   42 1
  41   23   43 1
  42   23   44 1
  43   23   45 1
  44   25   28 1
  45   25   46 1
  46   26   27 1
  47   27   28 2
  48   27   30 1
  49   28   29 1

#	End of record

