#	Name: ASD01915712
#	Creating user name:	WinNT
#	Creation time:	15. 06. 2019 20:06

#	Modifying user name:	WinNT
#	Modification time:	15. 06. 2019 20:06

#	Program:	/corina/corina34_cracker 3.40 0067  02.08.2006

@<TRIPOS>MOLECULE
ASD01915712
  42   45    0    0    0
SMALL
NO_CHARGES


@<TRIPOS>ATOM
   1 C1            -0.0043     1.4626     0.2165 C.2     
   2 N2             0.0612     0.1092    -0.0286 N.pl3   
   3 C3            -1.1516    -0.6750    -0.2910 C.3     
   4 C4            -2.3300    -0.0461     0.4507 C.3     
   5 N5            -2.4043     1.3988     0.2637 N.am    
   6 C6            -1.2915     2.1719     0.2666 C.2     
   7 C7             1.2786     1.8998     0.3918 C.2     
   8 C8             2.0744     0.7549     0.2509 C.2     
   9 N9             1.2809    -0.2624     0.0090 N.2     
  10 C10            3.5766     0.7012     0.3583 C.3     
  11 O11            4.0819     2.0101     0.6294 O.3     
  12 C12            5.4268     2.1371     0.7565 C.ar    
  13 O13           -1.3538     3.3859     0.3087 O.2     
  14 N14            6.2004     1.0718     0.6280 N.ar    
  15 C15            5.9783     3.3852     1.0146 C.ar    
  16 C16            7.3518     3.5012     1.1421 C.ar    
  17 C17            8.1280     2.3588     1.0060 C.ar    
  18 C18            7.5122     1.1509     0.7440 C.ar    
  19 C19           -3.6482     1.9976     0.0778 C.ar    
  20 N20           -3.7244     3.2616    -0.3200 N.ar    
  21 C21           -4.8118     1.2701     0.3033 C.ar    
  22 N22           -5.9911     1.8376     0.1267 N.ar    
  23 C23           -6.0693     3.0967    -0.2643 C.ar    
  24 C24           -4.9099     3.8276    -0.4962 C.ar    
  25 O25           -4.9917     5.1211    -0.8974 O.3     
  26 C26           -3.7599     5.8114    -1.1169 C.3     
  27 H27           -1.3567    -0.6807    -1.3615 H       
  28 H28           -1.0063    -1.6975     0.0576 H       
  29 H29           -3.2545    -0.4960     0.0888 H       
  30 H30           -2.2302    -0.2588     1.5150 H       
  31 H31            1.6076     2.9082     0.5947 H       
  32 H32            3.8592     0.0278     1.1675 H       
  33 H33            3.9952     0.3373    -0.5801 H       
  34 H34            5.3442     4.2537     1.1142 H       
  35 H35            7.8089     4.4590     1.3424 H       
  36 H36            9.2025     2.4147     1.0994 H       
  37 H37            8.1116     0.2589     0.6373 H       
  38 H38           -4.7510     0.2402     0.6227 H       
  39 H39           -7.0353     3.5577    -0.4082 H       
  40 H40           -3.1827     5.8274    -0.1925 H       
  41 H41           -3.1899     5.2997    -1.8924 H       
  42 H42           -3.9677     6.8335    -1.4334 H       
@<TRIPOS>BOND
   1    1    2 1
   2    1    7 2
   3    1    6 1
   4    2    3 1
   5    2    9 1
   6    3    4 1
   7    3   27 1
   8    3   28 1
   9    4    5 1
  10    4   29 1
  11    4   30 1
  12    5    6 am
  13    5   19 1
  14    6   13 2
  15    7    8 1
  16    7   31 1
  17    8    9 2
  18    8   10 1
  19   10   11 1
  20   10   32 1
  21   10   33 1
  22   11   12 1
  23   12   14 ar
  24   12   15 ar
  25   14   18 ar
  26   15   16 ar
  27   15   34 1
  28   16   17 ar
  29   16   35 1
  30   17   18 ar
  31   17   36 1
  32   18   37 1
  33   19   20 ar
  34   19   21 ar
  35   20   24 ar
  36   21   22 ar
  37   21   38 1
  38   22   23 ar
  39   23   24 ar
  40   23   39 1
  41   24   25 1
  42   25   26 1
  43   26   40 1
  44   26   41 1
  45   26   42 1

#	End of record

