#	Name: ASD02030650
#	Creating user name:	WinNT
#	Creation time:	15. 06. 2019 20:15

#	Modifying user name:	WinNT
#	Modification time:	15. 06. 2019 20:15

#	Program:	/corina/corina34_cracker 3.40 0067  02.08.2006

@<TRIPOS>MOLECULE
ASD02030650
  67   70    0    0    0
SMALL
NO_CHARGES


@<TRIPOS>ATOM
   1 C1            -0.1964     1.3650     0.6978 C.ar    
   2 C2            -0.2744     0.0355     1.0540 C.ar    
   3 C3             0.8860    -0.6648     1.3520 C.ar    
   4 C4             2.1097    -0.0207     1.2945 C.ar    
   5 C5             2.1854     1.3205     0.9416 C.ar    
   6 C6             1.0326     2.0088     0.6351 C.ar    
   7 C7             1.0463     3.4566     0.2123 C.3     
   8 C8             3.5479     1.9621     0.9281 C.3     
   9 C9             3.5430     3.2314     0.0777 C.3     
  10 N10            2.3712     4.0327     0.4652 N.am    
  11 C11            0.7253     3.5540    -1.2805 C.3     
  12 O12            1.6358     2.7359    -2.0179 O.3     
  13 C13            1.4866     2.7096    -3.3693 C.ar    
  14 C14            2.5103     5.2481     1.0307 C.2     
  15 S15            1.1261     6.1921     1.3824 S.2     
  16 C16            3.8564     5.7655     1.3468 C.ar    
  17 C17            1.1824     2.6555    -6.1203 C.ar    
  18 C18            0.3364     3.4337    -5.3442 C.ar    
  19 C19            0.4880     3.4605    -3.9715 C.ar    
  20 C20            2.3366     1.9362    -4.1459 C.ar    
  21 C21            2.1850     1.9094    -5.5186 C.ar    
  22 C22            4.8904     5.6438     0.4168 C.ar    
  23 C23            4.0993     6.3839     2.5753 C.ar    
  24 C24            5.3589     6.8654     2.8655 C.ar    
  25 C25            6.3820     6.7375     1.9430 C.ar    
  26 C26            6.1478     6.1304     0.7197 C.ar    
  27 O27            1.0332     2.6292    -7.4716 O.3     
  28 C28            0.0648     3.5163    -8.0348 C.3     
  29 O29            0.8210    -1.9770     1.6992 O.3     
  30 C30           -0.4818    -2.5436     1.8536 C.3     
  31 C31           -1.0036    -3.0016     0.4902 C.3     
  32 C32           -0.4073    -3.7431     2.8004 C.3     
  33 C33            0.4365     3.8217    -9.4872 C.3     
  34 F34            7.1504     6.0141    -0.1784 F       
  35 C35           -1.3162     2.8591    -7.9892 C.3     
  36 H36           -1.0986     1.9095     0.4611 H       
  37 H37           -1.2336    -0.4584     1.1011 H       
  38 H38            3.0130    -0.5654     1.5262 H       
  39 H39            0.2968     4.0075     0.7805 H       
  40 H40            3.8350     2.2154     1.9486 H       
  41 H41            4.2715     1.2581     0.5171 H       
  42 H42            4.4551     3.8000     0.2590 H       
  43 H43            3.4757     2.9678    -0.9778 H       
  44 H44           -0.2946     3.2117    -1.4559 H       
  45 H45            0.8220     4.5897    -1.6061 H       
  46 H46           -0.4443     4.0146    -5.8127 H       
  47 H47           -0.1713     4.0658    -3.3671 H       
  48 H48            3.1172     1.3553    -3.6774 H       
  49 H49            2.8438     1.3034    -6.1229 H       
  50 H50            4.7082     5.1704    -0.5367 H       
  51 H51            3.3021     6.4852     3.2968 H       
  52 H52            5.5468     7.3439     3.8153 H       
  53 H53            7.3661     7.1167     2.1755 H       
  54 H54            0.0450     4.4435    -7.4621 H       
  55 H55           -1.1568    -1.7948     2.2682 H       
  56 H56           -1.9973    -3.4337     0.6080 H       
  57 H57           -1.0566    -2.1470    -0.1843 H       
  58 H58           -0.3286    -3.7503     0.0757 H       
  59 H59           -0.0356    -3.4168     3.7717 H       
  60 H60           -1.4011    -4.1752     2.9182 H       
  61 H61            0.2676    -4.4919     2.3859 H       
  62 H62            0.4563     2.8944   -10.0598 H       
  63 H63           -0.3022     4.4983    -9.9168 H       
  64 H64            1.4203     4.2898    -9.5197 H       
  65 H65           -1.2964     1.9319    -8.5619 H       
  66 H66           -1.5810     2.6415    -6.9545 H       
  67 H67           -2.0549     3.5357    -8.4188 H       
@<TRIPOS>BOND
   1    1    2 ar
   2    1    6 ar
   3    1   36 1
   4    2    3 ar
   5    2   37 1
   6    3    4 ar
   7    3   29 1
   8    4    5 ar
   9    4   38 1
  10    5    6 ar
  11    5    8 1
  12    6    7 1
  13    7   10 1
  14    7   11 1
  15    7   39 1
  16    8    9 1
  17    8   40 1
  18    8   41 1
  19    9   10 1
  20    9   42 1
  21    9   43 1
  22   10   14 am
  23   11   12 1
  24   11   44 1
  25   11   45 1
  26   12   13 1
  27   13   20 ar
  28   13   19 ar
  29   14   15 2
  30   14   16 1
  31   16   23 ar
  32   16   22 ar
  33   17   18 ar
  34   17   21 ar
  35   17   27 1
  36   18   19 ar
  37   18   46 1
  38   19   47 1
  39   20   21 ar
  40   20   48 1
  41   21   49 1
  42   22   26 ar
  43   22   50 1
  44   23   24 ar
  45   23   51 1
  46   24   25 ar
  47   24   52 1
  48   25   26 ar
  49   25   53 1
  50   26   34 1
  51   27   28 1
  52   28   33 1
  53   28   35 1
  54   28   54 1
  55   29   30 1
  56   30   31 1
  57   30   32 1
  58   30   55 1
  59   31   56 1
  60   31   57 1
  61   31   58 1
  62   32   59 1
  63   32   60 1
  64   32   61 1
  65   33   62 1
  66   33   63 1
  67   33   64 1
  68   35   65 1
  69   35   66 1
  70   35   67 1

#	End of record

