#	Name: ASD01150697
#	Creating user name:	WinNT
#	Creation time:	15. 06. 2019 19:04

#	Modifying user name:	WinNT
#	Modification time:	15. 06. 2019 19:04

#	Program:	/corina/corina34_cracker 3.40 0067  02.08.2006

@<TRIPOS>MOLECULE
ASD01150697
  40   44    0    0    0
SMALL
NO_CHARGES


@<TRIPOS>ATOM
   1 C1            -0.0744     1.3319    -0.0414 C.2     
   2 O2            -0.3557     1.0393     1.1023 O.2     
   3 C3             3.3146     3.7173    -0.8405 C.ar    
   4 C4             3.4958     2.3392    -0.7897 C.ar    
   5 C5             2.3712     1.5093    -0.5209 C.ar    
   6 C6             1.1190     2.1316    -0.3197 C.ar    
   7 C7             1.0407     3.5298    -0.3920 C.ar    
   8 N8             2.1019     4.2536    -0.6411 N.ar    
   9 C9             4.8845     1.9396    -1.0335 C.2     
  10 C10            5.7054     2.9565    -1.2549 C.2     
  11 S11            4.8505     4.4965    -1.1908 S.3     
  12 C12            7.1256     2.4536    -1.4992 C.3     
  13 C13            6.9625     0.9576    -1.8337 C.3     
  14 C14            5.6501     0.6182    -1.1000 C.3     
  15 C15            2.5085     0.0481    -0.4551 C.2     
  16 C16            2.3130    -0.7163     0.6592 C.2     
  17 C17            2.5088    -2.0615     0.4374 C.2     
  18 C18            2.8519    -2.3854    -0.8130 C.2     
  19 S19            2.9434    -0.9971    -1.8004 S.3     
  20 C20           -0.2873     4.2098    -0.1799 C.3     
  21 C21           -0.9508     0.8663    -1.1756 C.3     
  22 C22           -1.8029    -0.3830    -0.9430 C.3     
  23 C23           -2.4649     0.9954    -0.9973 C.3     
  24 H24            7.5764     2.9830    -2.3386 H       
  25 H25            7.7316     2.5777    -0.6017 H       
  26 H26            6.8599     0.8064    -2.9082 H       
  27 H27            7.7940     0.3754    -1.4364 H       
  28 H28            5.8611     0.2513    -0.0956 H       
  29 H29            5.0813    -0.1216    -1.6632 H       
  30 H30            2.0334    -0.3070     1.6188 H       
  31 H31            2.3938    -2.8003     1.2167 H       
  32 H32            3.0421    -3.3924    -1.1539 H       
  33 H33           -0.4463     4.3721     0.8861 H       
  34 H34           -0.2913     5.1689    -0.6980 H       
  35 H35           -1.0850     3.5804    -0.5745 H       
  36 H36           -0.5466     1.0207    -2.1760 H       
  37 H37           -1.9596    -1.0502    -1.7906 H       
  38 H38           -1.7297    -0.8681     0.0303 H       
  39 H39           -2.8271     1.4170    -0.0596 H       
  40 H40           -3.0571     1.2349    -1.8805 H       
@<TRIPOS>BOND
   1    1    2 2
   2    1    6 1
   3    1   21 1
   4    3    4 ar
   5    3    8 ar
   6    3   11 1
   7    4    5 ar
   8    4    9 1
   9    5    6 ar
  10    5   15 1
  11    6    7 ar
  12    7    8 ar
  13    7   20 1
  14    9   10 2
  15    9   14 1
  16   10   11 1
  17   10   12 1
  18   12   13 1
  19   12   24 1
  20   12   25 1
  21   13   14 1
  22   13   26 1
  23   13   27 1
  24   14   28 1
  25   14   29 1
  26   15   16 2
  27   15   19 1
  28   16   17 1
  29   16   30 1
  30   17   18 2
  31   17   31 1
  32   18   19 1
  33   18   32 1
  34   20   33 1
  35   20   34 1
  36   20   35 1
  37   21   22 1
  38   21   23 1
  39   21   36 1
  40   22   23 1
  41   22   37 1
  42   22   38 1
  43   23   39 1
  44   23   40 1

#	End of record

