#	Name: ASD01510128
#	Creating user name:	WinNT
#	Creation time:	15. 06. 2019 19:21

#	Modifying user name:	WinNT
#	Modification time:	15. 06. 2019 19:21

#	Program:	/corina/corina34_cracker 3.40 0067  02.08.2006

@<TRIPOS>MOLECULE
ASD01510128
  47   49    0    0    0
SMALL
NO_CHARGES


@<TRIPOS>ATOM
   1 C1             1.7070     4.0310    -6.0225 C.ar    
   2 C2             2.0474     3.0280    -6.8989 C.ar    
   3 C3             3.3285     2.5030    -6.9135 C.ar    
   4 C4             4.2748     2.9963    -6.0339 C.ar    
   5 C5             3.9352     4.0078    -5.1485 C.ar    
   6 C6             2.6505     4.5486    -5.1195 C.ar    
   7 S7             4.8662     4.8625    -3.9108 S.3     
   8 C8             3.5229     5.8998    -3.4039 C.2     
   9 N9             2.4651     5.5484    -4.1832 N.pl3   
  10 C10            3.5450     6.8706    -2.4142 C.2     
  11 C11            4.5970     7.1774    -1.5481 C.2     
  12 N12            4.3963     8.1499    -0.6758 N.am    
  13 C13            3.1737     8.7826    -0.6869 C.2     
  14 S14            2.2460     7.9976    -1.9787 S.3     
  15 C15            2.7658     9.7969     0.1183 C.2     
  16 C16            1.3721    10.2480     0.0795 C.ar    
  17 N17            1.0903    11.5427     0.2257 N.ar    
  18 C18           -0.1513    11.9851     0.1958 C.ar    
  19 C19           -1.2104    11.1181     0.0115 C.ar    
  20 C20           -0.9638     9.7583    -0.1454 C.ar    
  21 C21            0.3434     9.3163    -0.1169 C.ar    
  22 C22            5.4415     8.5417     0.2731 C.3     
  23 C23            6.3102     9.6370    -0.3487 C.3     
  24 O24            5.6565     6.5727    -1.5945 O.2     
  25 C25            1.1670     6.2113    -4.0355 C.3     
  26 F26            5.5285     2.4929    -6.0370 F       
  27 C27            2.1851    12.4955     0.4244 C.3     
  28 H28            0.7030     4.4290    -6.0313 H       
  29 H29            1.3062     2.6446    -7.5844 H       
  30 H30            3.5863     1.7149    -7.6055 H       
  31 H31            3.4684    10.2713     0.7873 H       
  32 H32           -0.3430    13.0409     0.3177 H       
  33 H33           -2.2230    11.4932    -0.0102 H       
  34 H34           -1.7777     9.0635    -0.2908 H       
  35 H35            0.5701     8.2676    -0.2400 H       
  36 H36            4.9806     8.9181     1.1863 H       
  37 H37            6.0612     7.6765     0.5088 H       
  38 H38            7.0879     9.9285     0.3572 H       
  39 H39            6.7711     9.2606    -1.2619 H       
  40 H40            5.6906    10.5022    -0.5844 H       
  41 H41            0.4639     5.7988    -4.7590 H       
  42 H42            0.7882     6.0476    -3.0266 H       
  43 H43            1.2832     7.2808    -4.2108 H       
  44 H44            2.5953    12.7847    -0.5432 H       
  45 H45            1.8083    13.3799     0.9383 H       
  46 H46            2.9664    12.0310     1.0260 H       
  47 Cl47          12.0879    18.3799     6.1863 Cl      
@<TRIPOS>BOND
   1    1    2 ar
   2    1    6 ar
   3    1   28 1
   4    2    3 ar
   5    2   29 1
   6    3    4 ar
   7    3   30 1
   8    4    5 ar
   9    4   26 1
  10    5    7 1
  11    5    6 ar
  12    6    9 1
  13    7    8 1
  14    8    9 1
  15    8   10 2
  16    9   25 1
  17   10   11 1
  18   10   14 1
  19   11   12 am
  20   11   24 2
  21   12   13 1
  22   12   22 1
  23   13   14 1
  24   13   15 2
  25   15   16 1
  26   15   31 1
  27   16   17 ar
  28   16   21 ar
  29   17   18 ar
  30   17   27 1
  31   18   19 ar
  32   18   32 1
  33   19   20 ar
  34   19   33 1
  35   20   21 ar
  36   20   34 1
  37   21   35 1
  38   22   23 1
  39   22   36 1
  40   22   37 1
  41   23   38 1
  42   23   39 1
  43   23   40 1
  44   25   41 1
  45   25   42 1
  46   25   43 1
  47   27   44 1
  48   27   45 1
  49   27   46 1

#	End of record

