#	Name: ASD01870724
#	Creating user name:	WinNT
#	Creation time:	15. 06. 2019 19:39

#	Modifying user name:	WinNT
#	Modification time:	15. 06. 2019 19:39

#	Program:	/corina/corina34_cracker 3.40 0067  02.08.2006

@<TRIPOS>MOLECULE
ASD01870724
  41   44    0    0    0
SMALL
NO_CHARGES


@<TRIPOS>ATOM
   1 C1            -0.0167     1.3815     0.0096 C.ar    
   2 C2             0.0021    -0.0041     0.0020 C.ar    
   3 C3             1.2034    -0.6868    -0.0131 C.ar    
   4 C4             2.4020     0.0028    -0.0204 C.ar    
   5 C5             1.1854     2.0982     0.0020 C.ar    
   6 C6             1.4390     3.5478     0.0069 C.2     
   7 C7             2.4086     1.3985    -0.0125 C.ar    
   8 C8             3.5303     2.3545    -0.0175 C.2     
   9 C9             2.9364     3.7430    -0.0067 C.3     
  10 C10            3.3515     4.4979    -1.2432 C.ar    
  11 C11            4.0014     5.7123    -1.1260 C.ar    
  12 C12            4.3821     6.4047    -2.2603 C.ar    
  13 C13            4.1134     5.8825    -3.5117 C.ar    
  14 C14            3.4643     4.6676    -3.6288 C.ar    
  15 C15            3.0874     3.9732    -2.4945 C.ar    
  16 O16            0.6005     4.4236     0.0194 O.2     
  17 O17            4.7105     2.0776    -0.0293 O.2     
  18 C18            4.5276     6.6378    -4.7482 C.3     
  19 C19            5.9185     6.2197    -5.1499 C.2     
  20 C20            6.5545     6.8192    -6.3373 C.ar    
  21 O21            6.5146     5.3904    -4.4968 O.2     
  22 N22            5.8985     7.7323    -7.0471 N.ar    
  23 C23            7.8439     6.4280    -6.7051 C.ar    
  24 C24            8.4276     7.0024    -7.8257 C.ar    
  25 C25            7.7044     7.9451    -8.5375 C.ar    
  26 C26            6.4298     8.2903    -8.1113 C.ar    
  27 Cl27           8.7037     5.2414    -5.7742 Cl      
  28 F28           -1.1959     2.0408     0.0188 F       
  29 H29           -0.9277    -0.5536     0.0083 H       
  30 H30            1.2062    -1.7668    -0.0189 H       
  31 H31            3.3356    -0.5401    -0.0318 H       
  32 H32            3.2540     4.2800     0.8872 H       
  33 H33            4.2114     6.1203    -0.1484 H       
  34 H34            4.8893     7.3538    -2.1687 H       
  35 H35            3.2540     4.2598    -4.6065 H       
  36 H36            2.5836     3.0223    -2.5860 H       
  37 H37            3.8333     6.4164    -5.5588 H       
  38 H38            4.5153     7.7079    -4.5414 H       
  39 H39            9.4232     6.7210    -8.1353 H       
  40 H40            8.1305     8.4108    -9.4138 H       
  41 H41            5.8660     9.0282    -8.6627 H       
@<TRIPOS>BOND
   1    1    2 ar
   2    1    5 ar
   3    1   28 1
   4    2    3 ar
   5    2   29 1
   6    3    4 ar
   7    3   30 1
   8    4    7 ar
   9    4   31 1
  10    5    7 ar
  11    5    6 1
  12    6    9 1
  13    6   16 2
  14    7    8 1
  15    8    9 1
  16    8   17 2
  17    9   10 1
  18    9   32 1
  19   10   11 ar
  20   10   15 ar
  21   11   12 ar
  22   11   33 1
  23   12   13 ar
  24   12   34 1
  25   13   14 ar
  26   13   18 1
  27   14   15 ar
  28   14   35 1
  29   15   36 1
  30   18   19 1
  31   18   37 1
  32   18   38 1
  33   19   20 1
  34   19   21 2
  35   20   23 ar
  36   20   22 ar
  37   22   26 ar
  38   23   24 ar
  39   23   27 1
  40   24   25 ar
  41   24   39 1
  42   25   26 ar
  43   25   40 1
  44   26   41 1

#	End of record

