#	Name: ASD01910307
#	Creating user name:	WinNT
#	Creation time:	15. 06. 2019 19:55

#	Modifying user name:	WinNT
#	Modification time:	15. 06. 2019 19:55

#	Program:	/corina/corina34_cracker 3.40 0067  02.08.2006

@<TRIPOS>MOLECULE
ASD01910307
  44   47    0    0    0
SMALL
NO_CHARGES


@<TRIPOS>ATOM
   1 C1             0.0281     1.3038    -0.0559 C.ar    
   2 C2             2.4553    -0.0358    -0.0685 C.ar    
   3 C3             2.4279     1.3569    -0.0595 C.ar    
   4 C4             1.2053     2.0245    -0.0529 C.ar    
   5 C5             3.6972     2.1270    -0.0558 C.2     
   6 N6             3.8219     3.4391    -0.0474 N.2     
   7 N7             5.0806     3.7156    -0.0470 N.pl3   
   8 N8             5.7572     2.6205    -0.0549 N.2     
   9 N9             4.9393     1.6230    -0.0546 N.2     
  10 C10            5.6519     5.0646    -0.0393 C.3     
  11 C11            6.5166     5.2460     1.2103 C.3     
  12 C12            7.0874     6.6657     1.2360 C.3     
  13 C13            7.9699     6.8794     0.0022 C.3     
  14 N14            7.1858     6.5660    -1.2001 N.am    
  15 C15            6.5182     5.2601    -1.2876 C.3     
  16 C16            7.0808     7.4595    -2.2037 C.2     
  17 C17            7.6784     8.8014    -2.0624 C.ar    
  18 O18            6.4938     7.1599    -3.2254 O.2     
  19 C19            9.0327     8.9365    -1.7476 C.ar    
  20 C20            9.5857    10.1917    -1.6173 C.ar    
  21 C21            8.8016    11.3217    -1.7979 C.ar    
  22 C22            7.4576    11.1968    -2.1103 C.ar    
  23 C23            6.8922     9.9439    -2.2490 C.ar    
  24 F24            9.3507    12.5492    -1.6681 F       
  25 C25            0.0610    -0.0790    -0.0653 C.ar    
  26 C26            1.2722    -0.7468    -0.0714 C.ar    
  27 F27            5.5818     9.8221    -2.5541 F       
  28 H28           -0.9203     1.8204    -0.0463 H       
  29 H29            3.4005    -0.5582    -0.0740 H       
  30 H30            1.1785     3.1042    -0.0459 H       
  31 H31            4.8476     5.8003    -0.0352 H       
  32 H32            5.9080     5.0831     2.0998 H       
  33 H33            7.3347     4.5259     1.1935 H       
  34 H34            6.2700     7.3867     1.2279 H       
  35 H35            7.6841     6.8017     2.1381 H       
  36 H36            8.2988     7.9179    -0.0364 H       
  37 H37            8.8371     6.2211     0.0548 H       
  38 H38            7.2669     4.4698    -1.3402 H       
  39 H39            5.8891     5.2302    -2.1773 H       
  40 H40            9.6453     8.0584    -1.6061 H       
  41 H41           10.6326    10.2962    -1.3735 H       
  42 H42            6.8520    12.0801    -2.2494 H       
  43 H43           -0.8623    -0.6391    -0.0676 H       
  44 H44            1.2923    -1.8266    -0.0788 H       
@<TRIPOS>BOND
   1    1   25 ar
   2    1    4 ar
   3    1   28 1
   4    2    3 ar
   5    2   26 ar
   6    2   29 1
   7    3    4 ar
   8    3    5 1
   9    4   30 1
  10    5    6 2
  11    5    9 1
  12    6    7 1
  13    7    8 1
  14    7   10 1
  15    8    9 2
  16   10   11 1
  17   10   15 1
  18   10   31 1
  19   11   12 1
  20   11   32 1
  21   11   33 1
  22   12   13 1
  23   12   34 1
  24   12   35 1
  25   13   14 1
  26   13   36 1
  27   13   37 1
  28   14   15 1
  29   14   16 am
  30   15   38 1
  31   15   39 1
  32   16   17 1
  33   16   18 2
  34   17   19 ar
  35   17   23 ar
  36   19   20 ar
  37   19   40 1
  38   20   21 ar
  39   20   41 1
  40   21   22 ar
  41   21   24 1
  42   22   23 ar
  43   22   42 1
  44   23   27 1
  45   25   26 ar
  46   25   43 1
  47   26   44 1

#	End of record

