#	Name: ASD03540479
#	Creating user name:	WinNT
#	Creation time:	15. 06. 2019 20:43

#	Modifying user name:	WinNT
#	Modification time:	15. 06. 2019 20:43

#	Program:	/corina/corina34_cracker 3.40 0067  02.08.2006

@<TRIPOS>MOLECULE
ASD03540479
  55   58    0    0    0
SMALL
NO_CHARGES


@<TRIPOS>ATOM
   1 N1            -0.0169     1.3921     0.0097 N.4     
   2 C2             0.0021    -0.0041     0.0020 C.2     
   3 N3             1.1517    -0.6983    -0.0122 N.am    
   4 C4             2.3478    -0.0755    -0.0203 C.2     
   5 C5             2.3895     1.4017    -0.0132 C.ar    
   6 C6             3.5997     2.0907    -0.0206 C.ar    
   7 C7             3.5971     3.4715    -0.0132 C.ar    
   8 C8             2.3999     4.1655     0.0019 C.ar    
   9 C9             1.1941     3.4847     0.0098 C.ar    
  10 C10            1.1833     2.1079     0.0021 C.ar    
  11 C11           -0.7541     1.8043    -1.1043 C.2     
  12 O12           -0.2344     2.4979    -1.9526 O.2     
  13 N13           -2.0425     1.4309    -1.2355 N.am    
  14 C14           -2.8151     1.8628    -2.4028 C.3     
  15 C15           -4.2157     1.3145    -2.3091 C.ar    
  16 C16           -5.2022     2.0461    -1.6742 C.ar    
  17 C17           -6.4869     1.5457    -1.5870 C.ar    
  18 C18           -6.7867     0.3079    -2.1372 C.ar    
  19 C19           -5.7951    -0.4242    -2.7737 C.ar    
  20 C20           -4.5133     0.0831    -2.8632 C.ar    
  21 O21           -8.0497    -0.1868    -2.0523 O.3     
  22 C22           -8.2858    -1.4672    -2.6411 C.3     
  23 C23            1.1054    -2.1626    -0.0187 C.3     
  24 C24            2.1862    -3.3818    -3.4274 C.ar    
  25 C25            2.2524    -2.9289    -2.1233 C.ar    
  26 C26            1.0759    -2.6579    -1.4416 C.ar    
  27 C27           -0.1284    -2.8541    -2.1001 C.ar    
  28 C28           -0.1162    -3.3098    -3.4048 C.ar    
  29 N29            1.0224    -3.5569    -4.0223 N.ar    
  30 O30            3.3776    -0.7204    -0.0328 O.2     
  31 O31           -1.0497    -0.6071     0.0088 O.2     
  32 C32           -0.7691     1.8125     1.1994 C.3     
  33 H33            4.5338     1.5487    -0.0317 H       
  34 H34            4.5324     4.0116    -0.0189 H       
  35 H35            2.4061     5.2455     0.0080 H       
  36 H36            0.2637     4.0328     0.0223 H       
  37 H37           -2.4581     0.8761    -0.5569 H       
  38 H38           -2.8524     2.9518    -2.4312 H       
  39 H39           -2.3396     1.4917    -3.3108 H       
  40 H40           -4.9682     3.0095    -1.2457 H       
  41 H41           -7.2571     2.1174    -1.0906 H       
  42 H42           -6.0260    -1.3881    -3.2028 H       
  43 H43           -3.7420    -0.4843    -3.3628 H       
  44 H44           -9.3312    -1.7434    -2.5031 H       
  45 H45           -8.0589    -1.4246    -3.7064 H       
  46 H46           -7.6475    -2.2103    -2.1631 H       
  47 H47            1.9883    -2.5563     0.4849 H       
  48 H48            0.2093    -2.5000     0.5021 H       
  49 H49            3.0982    -3.5908    -3.9668 H       
  50 H50            3.2086    -2.7878    -1.6414 H       
  51 H51           -1.0642    -2.6535    -1.5997 H       
  52 H52           -1.0500    -3.4652    -3.9246 H       
  53 H53           -0.2764     1.4318     2.0941 H       
  54 H54           -0.8057     2.9012     1.2402 H       
  55 H55           -1.7832     1.4166     1.1467 H       
@<TRIPOS>BOND
   1    1    2 1
   2    1   10 1
   3    1   11 1
   4    1   32 1
   5    2    3 am
   6    2   31 2
   7    3    4 am
   8    3   23 1
   9    4    5 1
  10    4   30 2
  11    5    6 ar
  12    5   10 ar
  13    6    7 ar
  14    6   33 1
  15    7    8 ar
  16    7   34 1
  17    8    9 ar
  18    8   35 1
  19    9   10 ar
  20    9   36 1
  21   11   12 2
  22   11   13 am
  23   13   14 1
  24   13   37 1
  25   14   15 1
  26   14   38 1
  27   14   39 1
  28   15   16 ar
  29   15   20 ar
  30   16   17 ar
  31   16   40 1
  32   17   18 ar
  33   17   41 1
  34   18   19 ar
  35   18   21 1
  36   19   20 ar
  37   19   42 1
  38   20   43 1
  39   21   22 1
  40   22   44 1
  41   22   45 1
  42   22   46 1
  43   23   26 1
  44   23   47 1
  45   23   48 1
  46   24   25 ar
  47   24   29 ar
  48   24   49 1
  49   25   26 ar
  50   25   50 1
  51   26   27 ar
  52   27   28 ar
  53   27   51 1
  54   28   29 ar
  55   28   52 1
  56   32   53 1
  57   32   54 1
  58   32   55 1

#	End of record

