#	Name: ASD01208972
#	Creating user name:	WinNT
#	Creation time:	15. 06. 2019 19:10

#	Modifying user name:	WinNT
#	Modification time:	15. 06. 2019 19:10

#	Program:	/corina/corina34_cracker 3.40 0067  02.08.2006

@<TRIPOS>MOLECULE
ASD01208972
  49   52    0    0    0
SMALL
NO_CHARGES


@<TRIPOS>ATOM
   1 C1            -0.0187     1.5275     0.0104 C.3     
   2 C2             0.0021    -0.0041     0.0020 C.3     
   3 C3            -1.4312    -0.5350    -0.0664 C.3     
   4 C4            -1.4162    -2.0604     0.0508 C.3     
   5 C5            -2.8132    -2.5927    -0.1394 C.2     
   6 N6            -3.4713    -2.3612    -1.2925 N.am    
   7 C7            -4.7603    -2.8523    -1.4680 C.2     
   8 N8            -0.9239    -2.4435     1.3763 N.pl3   
   9 C9            -1.6638    -2.5399     2.5007 C.2     
  10 C10           -0.8404    -2.9196     3.5051 C.2     
  11 C11            0.4469    -3.0601     2.9764 C.2     
  12 N12            0.3970    -2.7803     1.6992 N.2     
  13 O13           -3.3452    -3.2293     0.7453 O.2     
  14 S14           -5.7079    -2.6342    -2.8741 S.3     
  15 C15           -7.0237    -3.5492    -2.1426 C.2     
  16 C16           -6.6349    -3.9302    -0.9231 C.2     
  17 N17           -5.4155    -3.5464    -0.5916 N.2     
  18 Cl18          -8.5579    -3.8944    -2.8779 Cl      
  19 S19           -1.3073    -3.1895     5.1825 S.o2    
  20 O20           -0.1158    -2.9537     5.9202 O.2     
  21 O21           -2.4547    -2.3708     5.3629 O.2     
  22 C22           -1.7606    -4.9446     5.2495 C.3     
  23 C23           -2.3319    -5.4770     6.5652 C.3     
  24 C24           -3.2482    -5.2865     5.3548 C.3     
  25 C25            0.7862    -0.4864    -1.2223 C.3     
  26 C26            2.1942     0.1136    -1.1856 C.3     
  27 O27            2.1023     1.5392    -1.1479 O.3     
  28 C28            1.4204     2.0497    -0.0005 C.3     
  29 H29           -0.5443     1.8896    -0.8732 H       
  30 H30           -0.5273     1.8800     0.9078 H       
  31 H31            0.4824    -0.3672     0.9106 H       
  32 H32           -2.0143    -0.1134     0.7523 H       
  33 H33           -1.8799    -0.2481    -1.0175 H       
  34 H34           -0.7613    -2.4772    -0.7145 H       
  35 H35           -3.0458    -1.8520    -2.0000 H       
  36 H36           -2.7234    -2.3480     2.5841 H       
  37 H37            1.3289    -3.3533     3.5264 H       
  38 H38           -7.2647    -4.5086    -0.2634 H       
  39 H39           -1.1297    -5.6157     4.6666 H       
  40 H40           -2.0772    -6.4984     6.8477 H       
  41 H41           -2.4353    -4.7726     7.3906 H       
  42 H42           -3.9545    -4.4567     5.3839 H       
  43 H43           -3.5963    -6.1826     4.8411 H       
  44 H44            0.8533    -1.5742    -1.2065 H       
  45 H45            0.2769    -0.1650    -2.1308 H       
  46 H46            2.7172    -0.2406    -0.2973 H       
  47 H47            2.7428    -0.1919    -2.0766 H       
  48 H48            1.4115     3.1390    -0.0377 H       
  49 H49            1.9333     1.7209     0.9033 H       
@<TRIPOS>BOND
   1    1    2 1
   2    1   28 1
   3    1   29 1
   4    1   30 1
   5    2    3 1
   6    2   25 1
   7    2   31 1
   8    3    4 1
   9    3   32 1
  10    3   33 1
  11    4    5 1
  12    4    8 1
  13    4   34 1
  14    5    6 am
  15    5   13 2
  16    6    7 1
  17    6   35 1
  18    7   14 1
  19    7   17 2
  20    8    9 1
  21    8   12 1
  22    9   10 2
  23    9   36 1
  24   10   11 1
  25   10   19 1
  26   11   12 2
  27   11   37 1
  28   14   15 1
  29   15   16 2
  30   15   18 1
  31   16   17 1
  32   16   38 1
  33   19   20 2
  34   19   21 2
  35   19   22 1
  36   22   23 1
  37   22   24 1
  38   22   39 1
  39   23   24 1
  40   23   40 1
  41   23   41 1
  42   24   42 1
  43   24   43 1
  44   25   26 1
  45   25   44 1
  46   25   45 1
  47   26   27 1
  48   26   46 1
  49   26   47 1
  50   27   28 1
  51   28   48 1
  52   28   49 1

#	End of record

