#	Name: ASD01910815
#	Creating user name:	WinNT
#	Creation time:	15. 06. 2019 19:56

#	Modifying user name:	WinNT
#	Modification time:	15. 06. 2019 19:56

#	Program:	/corina/corina34_cracker 3.40 0067  02.08.2006

@<TRIPOS>MOLECULE
ASD01910815
  42   44    0    0    0
SMALL
NO_CHARGES


@<TRIPOS>ATOM
   1 C1            -0.0391     1.4424     0.2732 C.ar    
   2 C2            -0.0381     0.0669     0.1212 C.ar    
   3 C3             1.1527    -0.6162    -0.0532 C.ar    
   4 C4             2.3485     0.0705    -0.0763 C.ar    
   5 C5             2.3556     1.4598     0.0765 C.ar    
   6 C6             1.1488     2.1427     0.2518 C.ar    
   7 C7             3.5932     2.1798     0.0541 C.1     
   8 C8             4.6078     2.7701     0.0357 C.1     
   9 C9             5.8454     3.4902     0.0134 C.ar    
  10 C10            5.8489     4.8811     0.1667 C.ar    
  11 C11            7.0523     2.8025    -0.1561 C.ar    
  12 C12            8.2323     3.4898    -0.1769 C.ar    
  13 C13            8.2346     4.8800    -0.0289 C.ar    
  14 C14            7.0296     5.5671     0.1457 C.ar    
  15 C15            9.5105     5.6223    -0.0515 C.2     
  16 O16           10.4811     5.1807     0.5327 O.2     
  17 N17            9.5995     6.7894    -0.7197 N.am    
  18 C18            8.4769     7.2724    -1.5354 C.3     
  19 C19            8.9867     7.5698    -2.9490 C.3     
  20 C20           10.1676     8.5399    -2.8676 C.3     
  21 C21           11.3042     7.8967    -2.0696 C.3     
  22 C22           10.8186     7.6057    -0.6415 C.3     
  23 O23           10.6252     8.8447    -4.1866 O.3     
  24 H24           -0.9727     1.9692     0.4044 H       
  25 H25           -0.9714    -0.4763     0.1392 H       
  26 H26            1.1456    -1.6897    -0.1712 H       
  27 H27            3.2771    -0.4640    -0.2118 H       
  28 H28            1.1465     3.2162     0.3702 H       
  29 H29            4.9181     5.4120     0.3012 H       
  30 H30            7.0507     1.7286    -0.2700 H       
  31 H31            9.1639     2.9592    -0.3073 H       
  32 H32            7.0321     6.6410     0.2599 H       
  33 H33            7.7018     6.5074    -1.5799 H       
  34 H34            8.0701     8.1825    -1.0946 H       
  35 H35            9.3097     6.6424    -3.4219 H       
  36 H36            8.1866     8.0193    -3.5372 H       
  37 H37            9.8503     9.4576    -2.3723 H       
  38 H38           11.6053     6.9662    -2.5508 H       
  39 H39           12.1535     8.5788    -2.0319 H       
  40 H40           10.6041     8.5441    -0.1301 H       
  41 H41           11.5889     7.0587    -0.0979 H       
  42 H42           11.3741     9.4559    -4.2116 H       
@<TRIPOS>BOND
   1    1    2 ar
   2    1    6 ar
   3    1   24 1
   4    2    3 ar
   5    2   25 1
   6    3    4 ar
   7    3   26 1
   8    4    5 ar
   9    4   27 1
  10    5    6 ar
  11    5    7 1
  12    6   28 1
  13    7    8 3
  14    8    9 1
  15    9   10 ar
  16    9   11 ar
  17   10   14 ar
  18   10   29 1
  19   11   12 ar
  20   11   30 1
  21   12   13 ar
  22   12   31 1
  23   13   14 ar
  24   13   15 1
  25   14   32 1
  26   15   16 2
  27   15   17 am
  28   17   18 1
  29   17   22 1
  30   18   19 1
  31   18   33 1
  32   18   34 1
  33   19   20 1
  34   19   35 1
  35   19   36 1
  36   20   21 1
  37   20   23 1
  38   20   37 1
  39   21   22 1
  40   21   38 1
  41   21   39 1
  42   22   40 1
  43   22   41 1
  44   23   42 1

#	End of record

