#	Name: ASD01914278
#	Creating user name:	WinNT
#	Creation time:	15. 06. 2019 20:03

#	Modifying user name:	WinNT
#	Modification time:	15. 06. 2019 20:03

#	Program:	/corina/corina34_cracker 3.40 0067  02.08.2006

@<TRIPOS>MOLECULE
ASD01914278
  36   37    0    0    0
SMALL
NO_CHARGES


@<TRIPOS>ATOM
   1 N1            -0.0154     1.2833     0.0091 N.2     
   2 N2             0.0021    -0.0041     0.0020 N.pl3   
   3 N3             1.1958    -0.4861    -0.0120 N.2     
   4 C4             2.0613     0.5148    -0.0149 C.ar    
   5 C5             1.2309     1.7280    -0.0004 C.ar    
   6 C6             1.8648     2.9832     0.0003 C.ar    
   7 C7             3.2239     3.0480    -0.0124 C.ar    
   8 C8             4.0137     1.8958    -0.0261 C.ar    
   9 C9             3.4626     0.6520    -0.0279 C.ar    
  10 C10           -1.2068    -0.8316     0.0099 C.3     
  11 C11           -1.6423    -1.1120    -1.4298 C.3     
  12 C12           -2.8569    -1.9435    -1.4219 C.1     
  13 C13           -3.8256    -2.6067    -1.4156 C.1     
  14 C14           -5.0072    -3.4156    -1.4079 C.ar    
  15 C15           -5.5908    -3.8003    -2.6156 C.ar    
  16 C16           -6.7322    -4.5818    -2.5914 C.ar    
  17 C17           -7.2545    -4.9545    -1.3605 C.ar    
  18 C18           -6.6252    -4.5381    -0.2019 C.ar    
  19 N19           -5.5361    -3.7986    -0.2515 N.ar    
  20 C20           -7.1898    -4.9405     1.1362 C.3     
  21 F21           -6.6199    -6.1536     1.5371 F       
  22 F22            3.8250     4.2579    -0.0121 F       
  23 F23            4.2537    -0.4430    -0.0413 F       
  24 H24            1.2772     3.8892     0.0104 H       
  25 H25            5.0890     1.9950    -0.0358 H       
  26 H26           -0.9986    -1.7740     0.5166 H       
  27 H27           -2.0040    -0.3053     0.5347 H       
  28 H28           -1.8504    -0.1696    -1.9365 H       
  29 H29           -0.8450    -1.6384    -1.9546 H       
  30 H30           -5.1580    -3.4919    -3.5558 H       
  31 H31           -7.2064    -4.8947    -3.5099 H       
  32 H32           -8.1445    -5.5640    -1.3082 H       
  33 H33           -6.9615    -4.1706     1.8733 H       
  34 H34           -8.2706    -5.0562     1.0545 H       
  35 Cl35          10.0890     9.2579     6.8733 Cl      
  36 H36           10.0890    10.6279     6.8733 H       
@<TRIPOS>BOND
   1    1    2 1
   2    1    5 2
   3    2    3 1
   4    2   10 1
   5    3    4 2
   6    4    5 ar
   7    4    9 ar
   8    5    6 ar
   9    6    7 ar
  10    6   24 1
  11    7    8 ar
  12    7   22 1
  13    8    9 ar
  14    8   25 1
  15    9   23 1
  16   10   11 1
  17   10   26 1
  18   10   27 1
  19   11   12 1
  20   11   28 1
  21   11   29 1
  22   12   13 3
  23   13   14 1
  24   14   15 ar
  25   14   19 ar
  26   15   16 ar
  27   15   30 1
  28   16   17 ar
  29   16   31 1
  30   17   18 ar
  31   17   32 1
  32   18   19 ar
  33   18   20 1
  34   20   21 1
  35   20   33 1
  36   20   34 1
  37   35   36 1

#	End of record

