#	Name: ASD01900514
#	Creating user name:	WinNT
#	Creation time:	15. 06. 2019 19:52

#	Modifying user name:	WinNT
#	Modification time:	15. 06. 2019 19:52

#	Program:	/corina/corina34_cracker 3.40 0067  02.08.2006

@<TRIPOS>MOLECULE
ASD01900514
  25   27    0    0    0
SMALL
NO_CHARGES


@<TRIPOS>ATOM
   1 C1            -0.0262     1.3895     0.1270 C.ar    
   2 C2             0.0064     0.0002    -0.0633 C.ar    
   3 C3             1.2216    -0.6693     0.0526 C.ar    
   4 C4             2.3509     0.0700     0.3522 C.ar    
   5 C5             2.2440     1.4422     0.5271 C.ar    
   6 N6             1.0868     2.0555     0.4131 N.ar    
   7 O7            -1.2510    -0.3999    -0.3364 O.3     
   8 N8            -2.1134     0.7200    -0.3272 N.2     
   9 C9            -1.4307     1.7960    -0.0523 C.2     
  10 N10           -1.9330     3.0872     0.0458 N.pl3   
  11 C11           -3.3100     3.3096    -0.0397 C.ar    
  12 C12           -4.2009     2.3267     0.3727 C.ar    
  13 C13           -5.5610     2.5497     0.2868 C.ar    
  14 C14           -6.0365     3.7497    -0.2094 C.ar    
  15 C15           -5.1525     4.7302    -0.6213 C.ar    
  16 C16           -3.7911     4.5163    -0.5320 C.ar    
  17 H17            1.2805    -1.7385    -0.0876 H       
  18 H18            3.3097    -0.4175     0.4497 H       
  19 H19            3.1278     2.0172     0.7611 H       
  20 H20           -1.3280     3.8346     0.1735 H       
  21 H21           -3.8302     1.3890     0.7597 H       
  22 H22           -6.2541     1.7860     0.6073 H       
  23 H23           -7.1007     3.9214    -0.2759 H       
  24 H24           -5.5272     5.6659    -1.0091 H       
  25 H25           -3.1012     5.2844    -0.8490 H       
@<TRIPOS>BOND
   1    1    2 ar
   2    1    6 ar
   3    1    9 1
   4    2    3 ar
   5    2    7 1
   6    3    4 ar
   7    3   17 1
   8    4    5 ar
   9    4   18 1
  10    5    6 ar
  11    5   19 1
  12    7    8 1
  13    8    9 2
  14    9   10 1
  15   10   11 1
  16   10   20 1
  17   11   12 ar
  18   11   16 ar
  19   12   13 ar
  20   12   21 1
  21   13   14 ar
  22   13   22 1
  23   14   15 ar
  24   14   23 1
  25   15   16 ar
  26   15   24 1
  27   16   25 1

#	End of record

