#	Name: ASD03330812
#	Creating user name:	WinNT
#	Creation time:	15. 06. 2019 20:38

#	Modifying user name:	WinNT
#	Modification time:	15. 06. 2019 20:38

#	Program:	/corina/corina34_cracker 3.40 0067  02.08.2006

@<TRIPOS>MOLECULE
ASD03330812
  55   58    0    0    0
SMALL
NO_CHARGES


@<TRIPOS>ATOM
   1 C1            -1.1836     2.3721     1.3616 C.2     
   2 N2            -1.6729     1.1125     1.4444 N.pl3   
   3 C3             0.1614     2.2693     1.1713 C.2     
   4 N4             0.4711     0.9553     1.1231 N.2     
   5 C5            -0.6262     0.2529     1.2806 C.2     
   6 C6            -0.7135    -1.2241     1.2801 C.ar    
   7 C7             1.1087     3.3906     1.0405 C.2     
   8 O8             0.7063     4.5367     1.1005 O.2     
   9 C9             3.0564     1.8203     0.8727 C.3     
  10 N10            2.4209     3.1459     0.8544 N.am    
  11 C11           -3.0752     0.7590     1.6822 C.3     
  12 C12           -3.9678     1.5927     0.7578 C.3     
  13 C13           -4.3077     2.9196     1.4290 C.3     
  14 N14           -3.1953     3.3893     2.2576 N.3     
  15 C15           -1.9943     3.6393     1.4471 C.3     
  16 C16           -3.5751     4.5867     3.0192 C.3     
  17 C17            0.1691    -1.9777     0.5059 C.ar    
  18 C18            0.0825    -3.3547     0.5097 C.ar    
  19 C19           -0.8771    -3.9883     1.2790 C.ar    
  20 C20           -1.7556    -3.2466     2.0485 C.ar    
  21 C21           -1.6752    -1.8692     2.0582 C.ar    
  22 C22            4.5587     2.0284     0.5872 C.3     
  23 C23            4.5882     3.4009    -0.1357 C.3     
  24 C24            3.4566     4.1632     0.5980 C.3     
  25 C25            2.9090     5.2599    -0.2786 C.2     
  26 N26            3.4448     6.4955    -0.2261 N.am    
  27 O27            1.9861     5.0306    -1.0314 O.2     
  28 C28            2.9124     7.5616    -1.0783 C.3     
  29 H29            2.9255     1.3599     1.8520 H       
  30 H30            2.6167     1.1877     0.1016 H       
  31 H31           -3.2241    -0.3005     1.4740 H       
  32 H32           -3.3320     0.9666     2.7209 H       
  33 H33           -3.4424     1.7838    -0.1779 H       
  34 H34           -4.8873     1.0450     0.5510 H       
  35 H35           -4.5220     3.6641     0.6622 H       
  36 H36           -5.1900     2.7882     2.0555 H       
  37 H37           -1.3971     4.4232     1.9129 H       
  38 H38           -2.2894     3.9513     0.4452 H       
  39 H39           -4.4623     4.3721     3.6149 H       
  40 H40           -2.7555     4.8733     3.6782 H       
  41 H41           -3.7893     5.4031     2.3295 H       
  42 H42            0.9184    -1.4843    -0.0954 H       
  43 H43            0.7649    -3.9393    -0.0894 H       
  44 H44           -0.9409    -5.0664     1.2786 H       
  45 H45           -2.5029    -3.7469     2.6465 H       
  46 H46           -2.3615    -1.2912     2.6593 H       
  47 H47            5.1258     2.0700     1.5171 H       
  48 H48            4.9402     1.2415    -0.0635 H       
  49 H49            5.5486     3.8965     0.0058 H       
  50 H50            4.3604     3.2892    -1.1958 H       
  51 H51            3.8243     4.5755     1.5376 H       
  52 H52            4.1829     6.6789     0.3760 H       
  53 H53            3.0139     7.2749    -2.1250 H       
  54 H54            1.8595     7.7210    -0.8457 H       
  55 H55            3.4677     8.4821    -0.8982 H       
@<TRIPOS>BOND
   1    1    2 1
   2    1    3 2
   3    1   15 1
   4    2   11 1
   5    2    5 1
   6    3    4 1
   7    3    7 1
   8    4    5 2
   9    5    6 1
  10    6   17 ar
  11    6   21 ar
  12    7    8 2
  13    7   10 am
  14    9   10 1
  15    9   22 1
  16    9   29 1
  17    9   30 1
  18   10   24 1
  19   11   12 1
  20   11   31 1
  21   11   32 1
  22   12   13 1
  23   12   33 1
  24   12   34 1
  25   13   14 1
  26   13   35 1
  27   13   36 1
  28   14   15 1
  29   14   16 1
  30   15   37 1
  31   15   38 1
  32   16   39 1
  33   16   40 1
  34   16   41 1
  35   17   18 ar
  36   17   42 1
  37   18   19 ar
  38   18   43 1
  39   19   20 ar
  40   19   44 1
  41   20   21 ar
  42   20   45 1
  43   21   46 1
  44   22   23 1
  45   22   47 1
  46   22   48 1
  47   23   24 1
  48   23   49 1
  49   23   50 1
  50   24   25 1
  51   24   51 1
  52   25   26 am
  53   25   27 2
  54   26   28 1
  55   26   52 1
  56   28   53 1
  57   28   54 1
  58   28   55 1

#	End of record

