#	Name: ASD01810971
#	Creating user name:	WinNT
#	Creation time:	15. 06. 2019 19:25

#	Modifying user name:	WinNT
#	Modification time:	15. 06. 2019 19:25

#	Program:	/corina/corina34_cracker 3.40 0067  02.08.2006

@<TRIPOS>MOLECULE
ASD01810971
  40   40    0    0    0
SMALL
NO_CHARGES


@<TRIPOS>ATOM
   1 C1             0.0204     1.4679    -0.1957 C.2     
   2 C2             0.0206    -0.0063    -0.0975 C.ar    
   3 C3             1.2287    -0.7084    -0.1009 C.ar    
   4 C4             1.2296    -2.0855    -0.0092 C.ar    
   5 C5             0.0383    -2.7782     0.0869 C.ar    
   6 C6            -1.1752    -2.0892     0.0914 C.ar    
   7 C7            -1.1841    -0.6999     0.0046 C.ar    
   8 O8             1.0704     2.0781    -0.1743 O.2     
   9 O9            -1.1440     2.1348    -0.3147 O.3     
  10 C10            2.5329     0.0394    -0.2055 C.3     
  11 C11            0.0492    -4.2819     0.1867 C.3     
  12 C12            0.5937    -4.8754    -1.1141 C.3     
  13 C13            0.9406    -4.7091     1.3545 C.3     
  14 C14           -2.4509    -2.8343     0.1936 C.2     
  15 N15           -3.2856    -2.5683     1.1589 N.2     
  16 S16           -2.8406    -4.0803    -0.9897 S.3     
  17 C17           -4.4556    -4.6104    -0.3677 C.3     
  18 C18           -5.0076    -5.7211    -1.2635 C.3     
  19 C19           -1.0683     3.5820    -0.4063 C.3     
  20 H20            2.1658    -2.6239    -0.0129 H       
  21 H21           -2.1206    -0.1620     0.0118 H       
  22 H22            2.8287     0.3938     0.7820 H       
  23 H23            3.3023    -0.6252    -0.5985 H       
  24 H24            2.4111     0.8905    -0.8755 H       
  25 H25           -0.9659    -4.6423     0.3536 H       
  26 H26            1.6087    -4.5150    -1.2811 H       
  27 H27            0.6015    -5.9630    -1.0420 H       
  28 H28           -0.0414    -4.5710    -1.9461 H       
  29 H29            1.9557    -4.3487     1.1876 H       
  30 H30            0.5527    -4.2863     2.2813 H       
  31 H31            0.9485    -5.7967     1.4267 H       
  32 H32           -4.1212    -3.0564     1.2258 H       
  33 H33           -4.3479    -4.9846     0.6504 H       
  34 H34           -5.1426    -3.7642    -0.3730 H       
  35 H35           -5.1154    -5.3469    -2.2816 H       
  36 H36           -4.3206    -6.5673    -1.2582 H       
  37 H37           -5.9802    -6.0403    -0.8890 H       
  38 H38           -0.5940     3.9785     0.4914 H       
  39 H39           -0.4806     3.8604    -1.2810 H       
  40 H40           -2.0736     3.9932    -0.4980 H       
@<TRIPOS>BOND
   1    1    2 1
   2    1    8 2
   3    1    9 1
   4    2    3 ar
   5    2    7 ar
   6    3    4 ar
   7    3   10 1
   8    4    5 ar
   9    4   20 1
  10    5    6 ar
  11    5   11 1
  12    6    7 ar
  13    6   14 1
  14    7   21 1
  15    9   19 1
  16   10   22 1
  17   10   23 1
  18   10   24 1
  19   11   12 1
  20   11   13 1
  21   11   25 1
  22   12   26 1
  23   12   27 1
  24   12   28 1
  25   13   29 1
  26   13   30 1
  27   13   31 1
  28   14   15 2
  29   14   16 1
  30   15   32 1
  31   16   17 1
  32   17   18 1
  33   17   33 1
  34   17   34 1
  35   18   35 1
  36   18   36 1
  37   18   37 1
  38   19   38 1
  39   19   39 1
  40   19   40 1

#	End of record

