#	Name: ASD00360016
#	Creating user name:	WinNT
#	Creation time:	15. 06. 2019 18:35

#	Modifying user name:	WinNT
#	Modification time:	15. 06. 2019 18:35

#	Program:	/corina/corina34_cracker 3.40 0067  02.08.2006

@<TRIPOS>MOLECULE
ASD00360016
  48   52    0    0    0
SMALL
NO_CHARGES


@<TRIPOS>ATOM
   1 C1            -0.0169     1.3982     0.0097 C.ar    
   2 C2             0.0021    -0.0041     0.0020 C.ar    
   3 C3             1.2158    -0.6899    -0.0133 C.ar    
   4 C4             2.4262     0.0187    -0.0213 C.ar    
   5 C5             2.4131     1.4199    -0.0133 C.ar    
   6 C6             1.1841     2.1116     0.0021 C.ar    
   7 C7             1.1763     3.5851     0.0105 C.2     
   8 C8             3.6776     2.1784    -0.0190 C.2     
   9 C9             3.6534     3.6227     0.2971 C.ar    
  10 C10            2.4250     4.3115     0.3108 C.ar    
  11 C11            2.4009     5.6757     0.6091 C.ar    
  12 C12            4.8303     4.3053     0.5809 C.ar    
  13 C13            4.7914     5.6590     0.8752 C.ar    
  14 C14            3.5918     6.3400     0.8899 C.ar    
  15 O15            1.2261    -2.0459    -0.0202 O.3     
  16 O16            4.7273     1.6229    -0.2801 O.2     
  17 O17            0.1516     4.1960    -0.2279 O.2     
  18 O18            1.2242     6.3495     0.6247 O.3     
  19 O19           -1.1989     2.0603     0.0189 O.3     
  20 C20            6.0709     6.3935     1.1826 C.3     
  21 C21           -1.2725    -0.7595     0.0107 C.ar    
  22 C22           -3.3318    -1.4032    -1.0149 C.ar    
  23 C23           -3.5964    -2.1779     0.1003 C.ar    
  24 N24           -2.7479    -2.2310     1.1088 N.ar    
  25 C25           -1.6152    -1.5587     1.1006 C.ar    
  26 C26           -2.1546    -0.6782    -1.0719 C.ar    
  27 C27            3.7135    -0.7113    -0.0375 C.ar    
  28 C28            4.0706    -1.4997    -1.1376 C.ar    
  29 C29            5.2851    -2.1615    -1.1034 C.ar    
  30 C30            6.1001    -2.0243     0.0061 C.ar    
  31 N31            5.7374    -1.2742     1.0288 N.ar    
  32 C32            4.5940    -0.6207     1.0410 C.ar    
  33 H33            5.7745     3.7810     0.5723 H       
  34 H34            3.5763     7.3950     1.1205 H       
  35 H35            1.2205    -2.4348    -0.9055 H       
  36 H36            0.7860     6.3558     1.4866 H       
  37 H37           -1.5378     2.2477     0.9050 H       
  38 H38            6.4927     6.7907     0.2593 H       
  39 H39            5.8629     7.2139     1.8695 H       
  40 H40            6.7826     5.7071     1.6414 H       
  41 H41           -4.0345    -1.3682    -1.8343 H       
  42 H42           -4.5145    -2.7447     0.1479 H       
  43 H43           -0.9458    -1.6275     1.9454 H       
  44 H44           -1.9229    -0.0649    -1.9302 H       
  45 H45            3.4148    -1.5895    -1.9909 H       
  46 H46            5.5936    -2.7790    -1.9341 H       
  47 H47            7.0486    -2.5400     0.0356 H       
  48 H48            4.3337    -0.0129     1.8949 H       
@<TRIPOS>BOND
   1    1    2 ar
   2    1    6 ar
   3    1   19 1
   4    2    3 ar
   5    2   21 1
   6    3    4 ar
   7    3   15 1
   8    4    5 ar
   9    4   27 1
  10    5    6 ar
  11    5    8 1
  12    6    7 1
  13    7   10 1
  14    7   17 2
  15    8    9 1
  16    8   16 2
  17    9   12 ar
  18    9   10 ar
  19   10   11 ar
  20   11   14 ar
  21   11   18 1
  22   12   13 ar
  23   12   33 1
  24   13   14 ar
  25   13   20 1
  26   14   34 1
  27   15   35 1
  28   18   36 1
  29   19   37 1
  30   20   38 1
  31   20   39 1
  32   20   40 1
  33   21   26 ar
  34   21   25 ar
  35   22   23 ar
  36   22   26 ar
  37   22   41 1
  38   23   24 ar
  39   23   42 1
  40   24   25 ar
  41   25   43 1
  42   26   44 1
  43   27   28 ar
  44   27   32 ar
  45   28   29 ar
  46   28   45 1
  47   29   30 ar
  48   29   46 1
  49   30   31 ar
  50   30   47 1
  51   31   32 ar
  52   32   48 1

#	End of record

