#	Name: ASD00843412
#	Creating user name:	WinNT
#	Creation time:	15. 06. 2019 18:46

#	Modifying user name:	WinNT
#	Modification time:	15. 06. 2019 18:46

#	Program:	/corina/corina34_cracker 3.40 0067  02.08.2006

@<TRIPOS>MOLECULE
ASD00843412
 100  105    0    0    0
SMALL
NO_CHARGES


@<TRIPOS>ATOM
   1 F1             5.5827    -2.7484    -1.8676 F       
   2 N2             0.8109     0.9492    -0.4813 N.ar    
   3 C3             0.9737    -0.3478    -0.6817 C.ar    
   4 C4             0.7972    -1.2522     0.3579 C.ar    
   5 C5             0.4477    -0.7786     1.6103 C.ar    
   6 C6             0.2864     0.5899     1.7793 C.ar    
   7 C7             0.4779     1.4307     0.7013 C.ar    
   8 C8             0.9832    -2.7294     0.1248 C.3     
   9 C9             0.5984    -3.5140     1.3610 C.2     
  10 C10            0.1590    -3.1886    -1.0796 C.3     
  11 C11           -1.2814    -2.7915    -0.8834 C.2     
  12 N12           -2.2161    -3.1863    -1.7705 N.am    
  13 O13           -1.5995    -2.1165     0.0727 O.2     
  14 C14           -3.6069    -2.7208    -1.6592 C.3     
  15 C15           -4.0426    -2.1600    -3.0171 C.3     
  16 N16           -3.8067    -3.1688    -4.0585 N.3     
  17 C17           -2.3765    -3.4793    -4.1854 C.3     
  18 C18           -1.8712    -4.0894    -2.8790 C.3     
  19 C19           -4.3681    -2.7378    -5.3458 C.3     
  20 C20           -3.9963    -3.7517    -6.4313 C.3     
  21 C21           -4.6345    -3.3297    -7.7567 C.3     
  22 N22           -6.0932    -3.2656    -7.6005 N.3     
  23 C23           -6.4763    -2.2645    -6.5968 C.3     
  24 C24           -5.8931    -2.6547    -5.2368 C.3     
  25 C25           -6.7492    -2.9985    -8.8875 C.3     
  26 O26           -0.4962    -3.5451     1.8826 O.2     
  27 N27            1.6968    -4.1701     1.7712 N.am    
  28 C28            2.4457    -3.0536    -0.0762 C.ar    
  29 C29            2.7984    -3.9216     0.9497 C.ar    
  30 C30            3.3704    -2.6603    -1.0171 C.ar    
  31 C31            4.6717    -3.1320    -0.9466 C.ar    
  32 C32            5.0351    -3.9982     0.0720 C.ar    
  33 C33            4.1076    -4.3927     1.0157 C.ar    
  34 Cl34           6.6646    -4.5903     0.1621 Cl      
  35 C35            1.3298    -6.7833     2.5529 C.ar    
  36 C36            0.0642    -7.0463     2.0486 C.ar    
  37 C37            2.2709    -7.7929     2.6221 C.ar    
  38 C38            1.9546    -9.0661     2.1891 C.ar    
  39 C39            0.6900    -9.3343     1.6838 C.ar    
  40 C40           -0.2559    -8.3235     1.6138 C.ar    
  41 O41            0.3792   -10.5870     1.2584 O.3     
  42 O42           -0.8610    -6.0532     1.9813 O.3     
  43 C43            1.4025   -11.5793     1.3604 C.3     
  44 C44           -2.1430    -6.3957     1.4510 C.3     
  45 C45           -3.0433    -5.1587     1.4543 C.3     
  46 C46           -8.2605    -3.1848    -8.7379 C.3     
  47 C47           -8.9437    -2.9066   -10.0784 C.3     
  48 O48            1.3160    -0.7995    -1.9144 O.3     
  49 C49            1.4201     0.1732    -2.9560 C.3     
  50 C50            1.9158    -0.5017    -4.2364 C.3     
  51 F51            3.1289    -1.1506    -3.9820 F       
  52 F52            0.9685    -1.4364    -4.6678 F       
  53 S53            1.7397    -5.1589     3.0989 S.o2    
  54 O54            3.0961    -5.2073     3.5196 O.2     
  55 O55            0.6779    -4.7403     3.9455 O.2     
  56 H56            0.3034    -1.4580     2.4372 H       
  57 H57            0.0136     0.9923     2.7437 H       
  58 H58            0.3540     2.4962     0.8276 H       
  59 H59            0.5453    -2.7193    -1.9844 H       
  60 H60            0.2274    -4.2723    -1.1748 H       
  61 H61           -4.2515    -3.5556    -1.3839 H       
  62 H62           -3.6719    -1.9392    -0.9023 H       
  63 H63           -5.1035    -1.9119    -2.9847 H       
  64 H64           -3.4656    -1.2630    -3.2422 H       
  65 H65           -2.2291    -4.1880    -5.0003 H       
  66 H66           -1.8227    -2.5640    -4.3942 H       
  67 H67           -0.7895    -4.2151    -2.9279 H       
  68 H68           -2.3481    -5.0562    -2.7178 H       
  69 H69           -3.9668    -1.7590    -5.6087 H       
  70 H70           -2.9125    -3.7840    -6.5432 H       
  71 H71           -4.3631    -4.7384    -6.1486 H       
  72 H72           -4.2567    -2.3490    -8.0457 H       
  73 H73           -4.3835    -4.0573    -8.5285 H       
  74 H74           -6.0899    -1.2887    -6.8912 H       
  75 H75           -7.5630    -2.2184    -6.5262 H       
  76 H76           -6.2898    -3.6241    -4.9353 H       
  77 H77           -6.1645    -1.9032    -4.4953 H       
  78 H78           -6.5382    -1.9750    -9.1974 H       
  79 H79           -6.3704    -3.6912    -9.6390 H       
  80 H80            3.0822    -1.9853    -1.8094 H       
  81 H81            4.3979    -5.0681     1.8069 H       
  82 H82            3.2555    -7.5862     3.0149 H       
  83 H83            2.6920    -9.8533     2.2434 H       
  84 H84           -1.2405    -8.5303     1.2213 H       
  85 H85            1.0240   -12.5312     0.9879 H       
  86 H86            2.2648   -11.2742     0.7675 H       
  87 H87            1.6992   -11.6893     2.4034 H       
  88 H88           -2.0285    -6.7591     0.4298 H       
  89 H89           -2.5939    -7.1749     2.0655 H       
  90 H90           -3.1578    -4.7953     2.4756 H       
  91 H91           -2.5924    -4.3795     0.8398 H       
  92 H92           -4.0212    -5.4199     1.0499 H       
  93 H93           -8.4715    -4.2082    -8.4280 H       
  94 H94           -8.6393    -2.4921    -7.9864 H       
  95 H95          -10.0203    -3.0393    -9.9718 H       
  96 H96           -8.7327    -1.8831   -10.3883 H       
  97 H97           -8.5649    -3.5992   -10.8299 H       
  98 H98            0.4418     0.6192    -3.1357 H       
  99 H99            2.1244     0.9501    -2.6586 H       
 100 H100           2.0620     0.2513    -5.0109 H       
@<TRIPOS>BOND
   1    1   31 1
   2    2    3 ar
   3    2    7 ar
   4    3    4 ar
   5    3   48 1
   6    4    5 ar
   7    4    8 1
   8    5    6 ar
   9    5   56 1
  10    6    7 ar
  11    6   57 1
  12    7   58 1
  13    8    9 1
  14    8   10 1
  15    8   28 1
  16    9   26 2
  17    9   27 am
  18   10   11 1
  19   10   59 1
  20   10   60 1
  21   11   12 am
  22   11   13 2
  23   12   14 1
  24   12   18 1
  25   14   15 1
  26   14   61 1
  27   14   62 1
  28   15   16 1
  29   15   63 1
  30   15   64 1
  31   16   17 1
  32   16   19 1
  33   17   18 1
  34   17   65 1
  35   17   66 1
  36   18   67 1
  37   18   68 1
  38   19   20 1
  39   19   24 1
  40   19   69 1
  41   20   21 1
  42   20   70 1
  43   20   71 1
  44   21   22 1
  45   21   72 1
  46   21   73 1
  47   22   23 1
  48   22   25 1
  49   23   24 1
  50   23   74 1
  51   23   75 1
  52   24   76 1
  53   24   77 1
  54   25   46 1
  55   25   78 1
  56   25   79 1
  57   27   53 am
  58   27   29 1
  59   28   29 ar
  60   28   30 ar
  61   29   33 ar
  62   30   31 ar
  63   30   80 1
  64   31   32 ar
  65   32   33 ar
  66   32   34 1
  67   33   81 1
  68   35   36 ar
  69   35   37 ar
  70   35   53 1
  71   36   42 1
  72   36   40 ar
  73   37   38 ar
  74   37   82 1
  75   38   39 ar
  76   38   83 1
  77   39   40 ar
  78   39   41 1
  79   40   84 1
  80   41   43 1
  81   42   44 1
  82   43   85 1
  83   43   86 1
  84   43   87 1
  85   44   45 1
  86   44   88 1
  87   44   89 1
  88   45   90 1
  89   45   91 1
  90   45   92 1
  91   46   47 1
  92   46   93 1
  93   46   94 1
  94   47   95 1
  95   47   96 1
  96   47   97 1
  97   48   49 1
  98   49   50 1
  99   49   98 1
 100   49   99 1
 101   50   51 1
 102   50   52 1
 103   50  100 1
 104   53   54 2
 105   53   55 2

#	End of record

