#	Name: ASD01890475
#	Creating user name:	WinNT
#	Creation time:	15. 06. 2019 19:51

#	Modifying user name:	WinNT
#	Modification time:	15. 06. 2019 19:51

#	Program:	/corina/corina34_cracker 3.40 0067  02.08.2006

@<TRIPOS>MOLECULE
ASD01890475
  46   49    0    0    0
SMALL
NO_CHARGES


@<TRIPOS>ATOM
   1 C1            -0.0184     1.5028     0.0103 C.2     
   2 C2             0.0021    -0.0041     0.0020 C.3     
   3 C3             1.4513    -0.4944    -0.0145 C.3     
   4 O4             1.0235     2.1233     0.0037 O.2     
   5 C5            -1.3153     3.6091     0.0279 C.ar    
   6 C6            -1.3018     2.2207     0.0203 C.ar    
   7 C7            -2.5093     1.4953     0.0216 C.ar    
   8 C8            -3.7051     2.1360     0.0303 C.ar    
   9 C9            -3.7513     3.5425     0.0381 C.ar    
  10 C10           -4.9782     4.2261     0.0461 C.ar    
  11 C11           -4.9927     5.5876     0.0531 C.ar    
  12 C12           -3.8060     6.3184     0.0521 C.ar    
  13 C13           -2.5980     5.6917     0.0444 C.ar    
  14 C14           -2.5431     4.2859     0.0374 C.ar    
  15 C15            1.5088    -4.7694    -0.0380 C.ar    
  16 C16            1.4878    -4.0638    -1.2393 C.ar    
  17 C17            1.4696    -2.6838    -1.2258 C.ar    
  18 C18            1.4717    -2.0012    -0.0227 C.ar    
  19 C19            1.4930    -2.6966     1.1728 C.ar    
  20 C20            1.5113    -4.0767     1.1710 C.ar    
  21 C21            1.5223    -6.2532    -0.0461 C.ar    
  22 C22            1.5433    -6.9588     1.1553 C.ar    
  23 C23            1.5557    -8.3389     1.1419 C.ar    
  24 C24            1.5479    -9.0215    -0.0612 C.ar    
  25 C25            1.5275    -8.3261    -1.2567 C.ar    
  26 C26            1.5082    -6.9460    -1.2549 C.ar    
  27 H27           -0.4983    -0.3791     0.8948 H       
  28 H28           -0.5153    -0.3696    -0.8850 H       
  29 H29            1.9516    -0.1193    -0.9073 H       
  30 H30            1.9686    -0.1289     0.8726 H       
  31 H31           -0.3881     4.1628     0.0310 H       
  32 H32           -2.4828     0.4156     0.0153 H       
  33 H33           -4.6225     1.5661     0.0308 H       
  34 H34           -5.9065     3.6741     0.0463 H       
  35 H35           -5.9383     6.1093     0.0593 H       
  36 H36           -3.8456     7.3977     0.0571 H       
  37 H37           -1.6862     6.2706     0.0441 H       
  38 H38            1.4862    -4.5957    -2.1792 H       
  39 H39            1.4533    -2.1358    -2.1564 H       
  40 H40            1.4949    -2.1587     2.1093 H       
  41 H41            1.5272    -4.6187     2.1051 H       
  42 H42            1.5501    -6.4268     2.0951 H       
  43 H43            1.5720    -8.8868     2.0724 H       
  44 H44            1.5581   -10.1014    -0.0671 H       
  45 H45            1.5219    -8.8640    -2.1931 H       
  46 H46            1.4871    -6.4040    -2.1888 H       
@<TRIPOS>BOND
   1    1    2 1
   2    1    4 2
   3    1    6 1
   4    2    3 1
   5    2   27 1
   6    2   28 1
   7    3   18 1
   8    3   29 1
   9    3   30 1
  10    5    6 ar
  11    5   14 ar
  12    5   31 1
  13    6    7 ar
  14    7    8 ar
  15    7   32 1
  16    8    9 ar
  17    8   33 1
  18    9   10 ar
  19    9   14 ar
  20   10   11 ar
  21   10   34 1
  22   11   12 ar
  23   11   35 1
  24   12   13 ar
  25   12   36 1
  26   13   14 ar
  27   13   37 1
  28   15   16 ar
  29   15   20 ar
  30   15   21 1
  31   16   17 ar
  32   16   38 1
  33   17   18 ar
  34   17   39 1
  35   18   19 ar
  36   19   20 ar
  37   19   40 1
  38   20   41 1
  39   21   22 ar
  40   21   26 ar
  41   22   23 ar
  42   22   42 1
  43   23   24 ar
  44   23   43 1
  45   24   25 ar
  46   24   44 1
  47   25   26 ar
  48   25   45 1
  49   26   46 1

#	End of record

