#	Name: ASD01913914
#	Creating user name:	WinNT
#	Creation time:	15. 06. 2019 20:02

#	Modifying user name:	WinNT
#	Modification time:	15. 06. 2019 20:02

#	Program:	/corina/corina34_cracker 3.40 0067  02.08.2006

@<TRIPOS>MOLECULE
ASD01913914
  47   49    0    0    0
SMALL
NO_CHARGES


@<TRIPOS>ATOM
   1 C1            -0.0173     1.4278     0.0099 C.ar    
   2 C2             0.0021    -0.0041     0.0020 C.1     
   3 C3             0.0180    -1.1779    -0.0044 C.1     
   4 C4             0.0374    -2.6098    -0.0123 C.ar    
   5 C5            -1.1552    -3.3455    -0.0049 C.ar    
   6 C6             0.0738    -5.2913    -0.0270 C.ar    
   7 N7             1.2235    -4.6330    -0.0401 N.ar    
   8 C8             1.2495    -3.3127    -0.0335 C.ar    
   9 N9            -1.0934    -4.6646    -0.0125 N.ar    
  10 C10            1.1547     3.5252     0.0099 C.ar    
  11 C11           -1.2349     2.1133     0.0310 C.ar    
  12 C12           -0.0549     4.1972     0.0250 C.ar    
  13 C13           -1.2457     3.4924     0.0385 C.ar    
  14 N14            0.0926    -6.6793    -0.0350 N.am    
  15 C15            1.1812     2.1463     0.0023 C.ar    
  16 C16            1.1946    -7.4404    -0.0549 C.2     
  17 N17            0.9455    -8.7565    -0.0588 N.am    
  18 C18           -0.5088    -8.9730    -0.0394 C.3     
  19 C19           -1.0940    -7.5476    -0.0167 C.3     
  20 C20           -0.9569    -9.7232    -1.2953 C.3     
  21 C21           -0.9212    -9.7374     1.2202 C.3     
  22 C22            1.9608    -9.8125    -0.0791 C.3     
  23 C23            2.8168    -9.6729    -1.3396 C.3     
  24 C24            2.8514    -9.6876     1.1586 C.3     
  25 O25            2.3191    -6.9785    -0.0687 O.2     
  26 H26           -2.1103    -2.8414     0.0073 H       
  27 H27            2.1905    -2.7828    -0.0446 H       
  28 H28            2.0801     4.0818    -0.0009 H       
  29 H29           -2.1650     1.5646     0.0412 H       
  30 H30           -0.0696     5.2771     0.0313 H       
  31 H31           -2.1859     4.0236     0.0544 H       
  32 H32            2.1259     1.6230    -0.0091 H       
  33 H33           -1.6779    -7.3881     0.8898 H       
  34 H34           -1.7044    -7.3705    -0.9022 H       
  35 H35           -0.4560   -10.6903    -1.3390 H       
  36 H36           -2.0359    -9.8741    -1.2629 H       
  37 H37           -0.6980    -9.1397    -2.1788 H       
  38 H38           -0.6373    -9.1638     2.1025 H       
  39 H39           -2.0008    -9.8880     1.2167 H       
  40 H40           -0.4194   -10.7048     1.2388 H       
  41 H41            1.4718   -10.7867    -0.0781 H       
  42 H42            3.3057    -8.6987    -1.3406 H       
  43 H43            3.5721   -10.4585    -1.3547 H       
  44 H44            2.1823    -9.7618    -2.2214 H       
  45 H45            3.3404    -8.7135     1.1576 H       
  46 H46            2.2416    -9.7871     2.0566 H       
  47 H47            3.6067   -10.4733     1.1435 H       
@<TRIPOS>BOND
   1    1    2 1
   2    1   15 ar
   3    1   11 ar
   4    2    3 3
   5    3    4 1
   6    4    5 ar
   7    4    8 ar
   8    5    9 ar
   9    5   26 1
  10    6    7 ar
  11    6   14 1
  12    6    9 ar
  13    7    8 ar
  14    8   27 1
  15   10   12 ar
  16   10   15 ar
  17   10   28 1
  18   11   13 ar
  19   11   29 1
  20   12   13 ar
  21   12   30 1
  22   13   31 1
  23   14   16 am
  24   14   19 1
  25   15   32 1
  26   16   17 am
  27   16   25 2
  28   17   18 1
  29   17   22 1
  30   18   19 1
  31   18   20 1
  32   18   21 1
  33   19   33 1
  34   19   34 1
  35   20   35 1
  36   20   36 1
  37   20   37 1
  38   21   38 1
  39   21   39 1
  40   21   40 1
  41   22   23 1
  42   22   24 1
  43   22   41 1
  44   23   42 1
  45   23   43 1
  46   23   44 1
  47   24   45 1
  48   24   46 1
  49   24   47 1

#	End of record

