#	Name: ASD03091697
#	Creating user name:	WinNT
#	Creation time:	15. 06. 2019 20:31

#	Modifying user name:	WinNT
#	Modification time:	15. 06. 2019 20:31

#	Program:	/corina/corina34_cracker 3.40 0067  02.08.2006

@<TRIPOS>MOLECULE
ASD03091697
  54   57    0    0    0
SMALL
NO_CHARGES


@<TRIPOS>ATOM
   1 Cl1            0.0000     0.0000     0.0000 Cl      
   2 H2             0.0000     1.3700     0.0000 H       
   3 C3            14.5222    11.2578     6.9661 C.ar    
   4 C4            14.5371     9.8567     6.9559 C.ar    
   5 C5            15.7552     9.1725     6.9344 C.ar    
   6 C6            16.9445     9.8746     6.9231 C.ar    
   7 C7            16.9318    11.2709     6.9336 C.ar    
   8 C8            15.7574    11.9514     6.9545 C.ar    
   9 S9            12.8850     9.2498     6.9742 S.3     
  10 C10           12.2340    10.8792     6.9947 C.2     
  11 C11           13.2206    11.7821     6.9929 C.2     
  12 C12           10.8024    11.2065     7.0166 C.2     
  13 O13           10.4442    12.3692     7.0293 O.2     
  14 N14            9.8853    10.2188     7.0226 N.am    
  15 N15            6.9551     9.8028     8.8300 N.3     
  16 C16            8.0049    10.7725     8.4898 C.3     
  17 C17            8.4573    10.5452     7.0445 C.3     
  18 C18            7.6547     9.3801     6.4520 C.3     
  19 C19            6.1630     9.7322     6.5142 C.3     
  20 C20            5.7741     9.9813     7.9741 C.3     
  21 C21            7.4614     8.4258     8.7470 C.3     
  22 C22            7.8989     8.1318     7.3093 C.3     
  23 N23           18.1605     9.1876     6.9016 N.am    
  24 C24           19.2094     9.6953     6.2244 C.2     
  25 O25           19.0711    10.6994     5.5532 O.2     
  26 C26           20.5279     9.0312     6.2977 C.ar    
  27 C27           21.6163     9.5545     5.5976 C.ar    
  28 C28           22.8441     8.9297     5.6704 C.ar    
  29 C29           22.9979     7.7867     6.4348 C.ar    
  30 C30           21.9231     7.2627     7.1309 C.ar    
  31 C31           20.6915     7.8813     7.0721 C.ar    
  32 H32           15.7668     8.0926     6.9269 H       
  33 H33           17.8650    11.8145     6.9250 H       
  34 H34           15.7648    13.0313     6.9617 H       
  35 H35           13.0283    12.8448     7.0041 H       
  36 H36           10.1709     9.2918     7.0125 H       
  37 H37            7.6128    11.7842     8.5932 H       
  38 H38            8.8533    10.6406     9.1614 H       
  39 H39            8.2779    11.4472     6.4594 H       
  40 H40            7.9556     9.2045     5.4192 H       
  41 H41            5.9752    10.6315     5.9276 H       
  42 H42            5.5756     8.9048     6.1159 H       
  43 H43            5.0000     9.2733     8.2702 H       
  44 H44            5.3975    10.9985     8.0816 H       
  45 H45            8.3132     8.3105     9.4172 H       
  46 H46            6.6735     7.7306     9.0367 H       
  47 H47            7.3185     7.2981     6.9141 H       
  48 H48            8.9594     7.8804     7.2945 H       
  49 H49           18.2501     8.3452     7.3740 H       
  50 H50           21.4973    10.4462     5.0000 H       
  51 H51           23.6870     9.3335     5.1292 H       
  52 H52           23.9612     7.3013     6.4881 H       
  53 H53           22.0499     6.3700     7.7254 H       
  54 H54           19.8533     7.4713     7.6159 H       
@<TRIPOS>BOND
   1    1    2 1
   2    3    4 ar
   3    3    8 ar
   4    3   11 1
   5    4    5 ar
   6    4    9 1
   7    5    6 ar
   8    5   32 1
   9    6    7 ar
  10    6   23 1
  11    7    8 ar
  12    7   33 1
  13    8   34 1
  14    9   10 1
  15   10   11 2
  16   10   12 1
  17   11   35 1
  18   12   13 2
  19   12   14 am
  20   14   17 1
  21   14   36 1
  22   15   16 1
  23   15   20 1
  24   15   21 1
  25   16   17 1
  26   16   37 1
  27   16   38 1
  28   17   18 1
  29   17   39 1
  30   18   19 1
  31   18   22 1
  32   18   40 1
  33   19   20 1
  34   19   41 1
  35   19   42 1
  36   20   43 1
  37   20   44 1
  38   21   22 1
  39   21   45 1
  40   21   46 1
  41   22   47 1
  42   22   48 1
  43   23   24 am
  44   23   49 1
  45   24   25 2
  46   24   26 1
  47   26   27 ar
  48   26   31 ar
  49   27   28 ar
  50   27   50 1
  51   28   29 ar
  52   28   51 1
  53   29   30 ar
  54   29   52 1
  55   30   31 ar
  56   30   53 1
  57   31   54 1

#	End of record

