#	Name: ASD01028758
#	Creating user name:	WinNT
#	Creation time:	15. 06. 2019 18:58

#	Modifying user name:	WinNT
#	Modification time:	15. 06. 2019 18:58

#	Program:	/corina/corina34_cracker 3.40 0067  02.08.2006

@<TRIPOS>MOLECULE
ASD01028758
  36   38    0    0    0
SMALL
NO_CHARGES


@<TRIPOS>ATOM
   1 N1            -0.0179     1.4702     0.0101 N.3     
   2 C2             0.0021    -0.0041     0.0020 C.3     
   3 C3             1.4820    -0.4413     0.0110 C.3     
   4 C4             2.2089     0.7978     0.5967 C.3     
   5 C5             1.3770     1.9600    -0.0006 C.3     
   6 O6             1.6671    -1.5807     0.8533 O.3     
   7 C7            -0.7682     1.9929    -1.1396 C.3     
   8 C8            -0.9813     3.4982    -0.9679 C.3     
   9 O9             0.2818     4.1654    -1.0058 O.3     
  10 N10           -0.9882     7.4953    -0.5584 N.ar    
  11 C11           -0.9433     6.1933    -0.6956 C.ar    
  12 C12            0.2698     5.5168    -0.8667 C.ar    
  13 C13            1.4451     6.2197    -0.8931 C.ar    
  14 C14            1.3876     7.6183    -0.7449 C.ar    
  15 N15            2.4984     8.3602    -0.7614 N.ar    
  16 C16            2.4499     9.6638    -0.6233 C.ar    
  17 C17            1.2428    10.3356    -0.4529 C.ar    
  18 C18            0.0685     9.6356    -0.4263 C.ar    
  19 C19            0.1236     8.2349    -0.5758 C.ar    
  20 Cl20          -1.4498    10.4501    -0.2139 Cl      
  21 H21           -0.5030    -0.3866     0.8889 H       
  22 H22           -0.4892    -0.3766    -0.8968 H       
  23 H23            1.8287    -0.6487    -1.0014 H       
  24 H24            2.1590     0.8012     1.6856 H       
  25 H25            3.2429     0.8417     0.2547 H       
  26 H26            1.6974     2.1707    -1.0209 H       
  27 H27            1.4709     2.8516     0.6194 H       
  28 H28            2.5805    -1.8956     0.8938 H       
  29 H29           -0.2061     1.8076    -2.0549 H       
  30 H30           -1.7352     1.4935    -1.1997 H       
  31 H31           -1.6130     3.8701    -1.7745 H       
  32 H32           -1.4648     3.6897    -0.0099 H       
  33 H33           -1.8638     5.6288    -0.6760 H       
  34 H34            2.3906     5.7143    -1.0238 H       
  35 H35            3.3695    10.2299    -0.6419 H       
  36 H36            1.2337    11.4098    -0.3413 H       
@<TRIPOS>BOND
   1    1    2 1
   2    1    5 1
   3    1    7 1
   4    2    3 1
   5    2   21 1
   6    2   22 1
   7    3    4 1
   8    3    6 1
   9    3   23 1
  10    4    5 1
  11    4   24 1
  12    4   25 1
  13    5   26 1
  14    5   27 1
  15    6   28 1
  16    7    8 1
  17    7   29 1
  18    7   30 1
  19    8    9 1
  20    8   31 1
  21    8   32 1
  22    9   12 1
  23   10   11 ar
  24   10   19 ar
  25   11   12 ar
  26   11   33 1
  27   12   13 ar
  28   13   14 ar
  29   13   34 1
  30   14   15 ar
  31   14   19 ar
  32   15   16 ar
  33   16   17 ar
  34   16   35 1
  35   17   18 ar
  36   17   36 1
  37   18   19 ar
  38   18   20 1

#	End of record

