#	Name: ASD03730368
#	Creating user name:	WinNT
#	Creation time:	15. 06. 2019 20:44

#	Modifying user name:	WinNT
#	Modification time:	15. 06. 2019 20:44

#	Program:	/corina/corina34_cracker 3.40 0067  02.08.2006

@<TRIPOS>MOLECULE
ASD03730368
  69   74    0    0    0
SMALL
NO_CHARGES


@<TRIPOS>ATOM
   1 C1            -0.1555     1.4825    -0.6487 C.2     
   2 C2            -0.1581     0.0082    -0.7586 C.ar    
   3 C3             1.0343    -0.6795    -0.9909 C.ar    
   4 C4             1.0250    -2.0552    -1.0919 C.ar    
   5 C5            -0.1629    -2.7534    -0.9641 C.ar    
   6 C6            -1.3480    -2.0780    -0.7339 C.ar    
   7 C7            -1.3517    -0.7025    -0.6249 C.ar    
   8 O8             0.8864     2.0985    -0.7605 O.2     
   9 N9            -1.3093     2.1440    -0.4299 N.am    
  10 C10            2.3113    -2.7993    -1.3426 C.3     
  11 O11           -0.2176    -3.7257     5.3235 O.3     
  12 C12           -0.0631    -4.0763     6.7114 C.3     
  13 O13            0.8418    -5.1958     6.6829 O.3     
  14 C14            1.5883    -5.0341     5.5509 C.ar    
  15 C15            0.9358    -4.1308     4.7150 C.ar    
  16 C16            2.7919    -5.5930     5.1602 C.ar    
  17 C17            3.3582    -5.2607     3.9332 C.ar    
  18 C18            2.6930    -4.3636     3.1032 C.ar    
  19 C19            1.4958    -3.7999     3.4925 C.ar    
  20 O20            4.5290    -5.6783     3.3717 O.3     
  21 C21            3.5280    -4.2314     1.8577 C.3     
  22 C22            4.4956    -5.4187     1.9551 C.3     
  23 N23            2.9348    -3.1419    -0.0620 N.am    
  24 C24            2.6973    -4.2871     0.6081 C.2     
  25 C25            4.2549    -2.9209     1.7941 C.ar    
  26 C26            5.1556    -2.2913     2.6238 C.ar    
  27 C27            5.6640    -1.0511     2.2809 C.ar    
  28 C28            5.2648    -0.4452     1.1035 C.ar    
  29 C29            4.3620    -1.0714     0.2696 C.ar    
  30 C30            3.8455    -2.3201     0.6065 C.ar    
  31 O31            1.9579    -5.1864     0.2681 O.2     
  32 C32           -1.3067     3.6049    -0.3210 C.3     
  33 C33           -2.7332     4.1004    -0.0747 C.3     
  34 N34           -2.7306     5.5654     0.0346 N.3     
  35 C35           -4.1006     6.0957     0.0339 C.3     
  36 C36           -4.6623     6.0553    -1.3887 C.3     
  37 C37           -1.9974     6.0028     1.2300 C.3     
  38 C38           -1.6735     7.4936     1.1125 C.3     
  39 H39            1.9619    -0.1357    -1.0916 H       
  40 H40           -0.1648    -3.8304    -1.0448 H       
  41 H41           -2.2717    -2.6288    -0.6350 H       
  42 H42           -2.2770    -0.1766    -0.4411 H       
  43 H43           -2.1413     1.6527    -0.3447 H       
  44 H44            2.1003    -3.7121    -1.8997 H       
  45 H45            2.9887    -2.1698    -1.9197 H       
  46 H46            0.3711    -3.2470     7.2698 H       
  47 H47           -1.0210    -4.3689     7.1414 H       
  48 H48            3.2953    -6.2919     5.8117 H       
  49 H49            0.9938    -3.0989     2.8422 H       
  50 H50            5.4845    -5.1432     1.5886 H       
  51 H51            4.1068    -6.2805     1.4126 H       
  52 H52            5.4658    -2.7662     3.5429 H       
  53 H53            6.3711    -0.5574     2.9310 H       
  54 H54            5.6615     0.5230     0.8359 H       
  55 H55            4.0547    -0.5916    -0.6479 H       
  56 H56           -0.6689     3.9062     0.5100 H       
  57 H57           -0.9265     4.0376    -1.2463 H       
  58 H58           -3.3710     3.7992    -0.9056 H       
  59 H59           -3.1134     3.6677     0.8507 H       
  60 H60           -4.7256     5.4885     0.6887 H       
  61 H61           -4.0918     7.1252     0.3920 H       
  62 H62           -4.0892     6.7296    -2.0250 H       
  63 H63           -4.5915     5.0399    -1.7786 H       
  64 H64           -5.7066     6.3676    -1.3759 H       
  65 H65           -2.6107     5.8329     2.1149 H       
  66 H66           -1.0707     5.4354     1.3157 H       
  67 H67           -1.1402     7.6771     0.1798 H       
  68 H68           -2.5996     8.0683     1.1207 H       
  69 H69           -1.0500     7.7973     1.9534 H       
@<TRIPOS>BOND
   1    1    2 1
   2    1    8 2
   3    1    9 am
   4    2    3 ar
   5    2    7 ar
   6    3    4 ar
   7    3   39 1
   8    4    5 ar
   9    4   10 1
  10    5    6 ar
  11    5   40 1
  12    6    7 ar
  13    6   41 1
  14    7   42 1
  15    9   32 1
  16    9   43 1
  17   10   23 1
  18   10   44 1
  19   10   45 1
  20   11   12 1
  21   11   15 1
  22   12   13 1
  23   12   46 1
  24   12   47 1
  25   13   14 1
  26   14   15 ar
  27   14   16 ar
  28   15   19 ar
  29   16   17 ar
  30   16   48 1
  31   17   18 ar
  32   17   20 1
  33   18   19 ar
  34   18   21 1
  35   19   49 1
  36   20   22 1
  37   21   22 1
  38   21   24 1
  39   21   25 1
  40   22   50 1
  41   22   51 1
  42   23   24 am
  43   23   30 1
  44   24   31 2
  45   25   26 ar
  46   25   30 ar
  47   26   27 ar
  48   26   52 1
  49   27   28 ar
  50   27   53 1
  51   28   29 ar
  52   28   54 1
  53   29   30 ar
  54   29   55 1
  55   32   33 1
  56   32   56 1
  57   32   57 1
  58   33   34 1
  59   33   58 1
  60   33   59 1
  61   34   35 1
  62   34   37 1
  63   35   36 1
  64   35   60 1
  65   35   61 1
  66   36   62 1
  67   36   63 1
  68   36   64 1
  69   37   38 1
  70   37   65 1
  71   37   66 1
  72   38   67 1
  73   38   68 1
  74   38   69 1

#	End of record

