#	Name: ASD03910142
#	Creating user name:	WinNT
#	Creation time:	15. 06. 2019 20:47

#	Modifying user name:	WinNT
#	Modification time:	15. 06. 2019 20:47

#	Program:	/corina/corina34_cracker 3.40 0067  02.08.2006

@<TRIPOS>MOLECULE
ASD03910142
  32   33    0    0    0
SMALL
NO_CHARGES


@<TRIPOS>ATOM
   1 C1            -0.0167     1.3825     0.0096 C.ar    
   2 C2             3.6750     2.1894    -0.0218 C.3     
   3 C3             2.3803     1.4182    -0.0131 C.ar    
   4 C4             1.1750     2.0924     0.0021 C.ar    
   5 C5             0.0021    -0.0041     0.0020 C.ar    
   6 C6             1.2077    -0.6785    -0.0131 C.ar    
   7 C7             2.3991     0.0312    -0.0207 C.ar    
   8 C8            -2.3910     1.2518     0.0431 C.3     
   9 C9             3.5304    -2.0605    -0.0428 C.3     
  10 C10            6.0091    -1.7537    -0.0648 C.ar    
  11 C11            4.9306    -2.6175    -0.0592 C.ar    
  12 C12            7.4448    -3.6543    -0.1002 C.ar    
  13 C13            7.2934    -2.2764    -0.0857 C.ar    
  14 O14           -1.2034     2.0463     0.0302 O.3     
  15 O15            3.5858    -0.6326    -0.0356 O.3     
  16 C16            6.3187    -4.4558    -0.0819 C.ar    
  17 N17            5.1124    -3.9237    -0.0675 N.ar    
  18 H18            3.9769     2.3809    -1.0515 H       
  19 H19            3.5369     3.1372     0.4985 H       
  20 H20            4.4476     1.6080     0.4813 H       
  21 H21            1.1604     3.1723     0.0077 H       
  22 H22           -0.9258    -0.5567     0.0083 H       
  23 H23            1.2224    -1.7584    -0.0187 H       
  24 H24           -2.4202     0.6274    -0.8499 H       
  25 H25           -2.3946     0.6179     0.9298 H       
  26 H26           -3.2643     1.9039     0.0591 H       
  27 H27            2.9944    -2.3989    -0.9295 H       
  28 H28            3.0114    -2.4085     0.8503 H       
  29 H29            5.8538    -0.6850    -0.0576 H       
  30 H30            8.4303    -4.0960    -0.1123 H       
  31 H31            8.1552    -1.6255    -0.0913 H       
  32 H32            6.4283    -5.5302    -0.0797 H       
@<TRIPOS>BOND
   1    1    5 ar
   2    1    4 ar
   3    1   14 1
   4    2    3 1
   5    2   18 1
   6    2   19 1
   7    2   20 1
   8    3    7 ar
   9    3    4 ar
  10    4   21 1
  11    5    6 ar
  12    5   22 1
  13    6   23 1
  14    6    7 ar
  15    7   15 1
  16    8   14 1
  17    8   24 1
  18    8   25 1
  19    8   26 1
  20    9   27 1
  21    9   28 1
  22    9   11 1
  23    9   15 1
  24   10   11 ar
  25   10   29 1
  26   10   13 ar
  27   11   17 ar
  28   12   16 ar
  29   12   30 1
  30   12   13 ar
  31   13   31 1
  32   16   17 ar
  33   16   32 1

#	End of record

