#	Name: ASD03081239
#	Creating user name:	WinNT
#	Creation time:	15. 06. 2019 20:27

#	Modifying user name:	WinNT
#	Modification time:	15. 06. 2019 20:27

#	Program:	/corina/corina34_cracker 3.40 0067  02.08.2006

@<TRIPOS>MOLECULE
ASD03081239
  26   28    0    0    0
SMALL
NO_CHARGES


@<TRIPOS>ATOM
   1 C1            -0.0170     1.4001     0.0097 C.2     
   2 C2             0.0021    -0.0041     0.0020 C.2     
   3 C3             1.2212    -0.6598    -0.0131 C.2     
   4 C4             2.4078     0.1051    -0.0203 C.2     
   5 C5             2.3373     1.4545    -0.0124 C.2     
   6 N6             1.1378     2.0914     0.0024 N.am    
   7 O7            -1.0829     1.9948     0.0180 O.2     
   8 O8             0.6370    -4.1109    -0.0258 O.3     
   9 N9             0.2575    -2.9591    -0.0158 N.2     
  10 C10            1.2799    -2.1434    -0.0212 C.2     
  11 N11            2.3980    -2.8989    -0.0362 N.2     
  12 C12            1.9785    -4.1500    -0.0390 C.2     
  13 C13            4.2158    -5.2569    -0.0656 C.ar    
  14 C14            2.8242    -5.3625    -0.0532 C.ar    
  15 C15            2.2428    -6.6357    -0.0539 C.ar    
  16 C16            3.0789    -7.7385    -0.0669 C.ar    
  17 C17            4.4489    -7.5493    -0.0788 C.ar    
  18 N18            4.9691    -6.3368    -0.0778 N.ar    
  19 H19           -0.9212    -0.5644     0.0082 H       
  20 H20            3.3692    -0.3868    -0.0318 H       
  21 H21            3.2480     2.0350    -0.0180 H       
  22 H22            1.1129     3.0610     0.0075 H       
  23 H23            4.6786    -4.2811    -0.0698 H       
  24 H24            1.1694    -6.7544    -0.0441 H       
  25 H25            2.6659    -8.7364    -0.0675 H       
  26 H26            5.1036    -8.4082    -0.0886 H       
@<TRIPOS>BOND
   1    1    2 1
   2    1    6 am
   3    1    7 2
   4    2    3 2
   5    2   19 1
   6    3    4 1
   7    3   10 1
   8    4    5 2
   9    4   20 1
  10    5    6 1
  11    5   21 1
  12    6   22 1
  13    8    9 1
  14    8   12 1
  15    9   10 2
  16   10   11 1
  17   11   12 2
  18   12   14 1
  19   13   14 ar
  20   13   18 ar
  21   13   23 1
  22   14   15 ar
  23   15   16 ar
  24   15   24 1
  25   16   17 ar
  26   16   25 1
  27   17   18 ar
  28   17   26 1

#	End of record

