#	Name: ASD01810443
#	Creating user name:	WinNT
#	Creation time:	15. 06. 2019 19:24

#	Modifying user name:	WinNT
#	Modification time:	15. 06. 2019 19:24

#	Program:	/corina/corina34_cracker 3.40 0067  02.08.2006

@<TRIPOS>MOLECULE
ASD01810443
  44   45    0    0    0
SMALL
NO_CHARGES


@<TRIPOS>ATOM
   1 N1            -0.0176     1.4503     0.0100 N.am    
   2 C2             0.0021    -0.0041     0.0020 C.3     
   3 C3             1.2555    -0.4773     0.7614 C.3     
   4 C4             1.1781     0.0590     2.1931 C.3     
   5 C5             1.7459     1.4397     2.3119 C.2     
   6 C6             1.7408     2.3938     1.4055 C.2     
   7 C7             1.2749     2.1445     0.0014 C.3     
   8 C8            -1.1790     2.1342     0.0193 C.2     
   9 O9            -2.2365     1.5357     0.0211 O.2     
  10 O10           -1.1674     3.4805     0.0266 O.3     
  11 C11            2.3879     1.7700     3.6000 C.ar    
  12 C12            1.8379     2.7572     4.4215 C.ar    
  13 C13            2.4339     3.0646     5.6175 C.ar    
  14 C14            3.5919     2.3898     6.0149 C.ar    
  15 C15            4.1416     1.4018     5.1928 C.ar    
  16 C16            3.5420     1.0914     3.9994 C.ar    
  17 C17            4.2150     2.7108     7.2637 C.1     
  18 N18            4.7093     2.9655     8.2543 N.1     
  19 C19           -2.4554     4.1508     0.0364 C.3     
  20 C20           -3.2347     3.7396     1.2872 C.3     
  21 C21           -2.2418     5.6658     0.0436 C.3     
  22 C22           -3.2467     3.7532    -1.2112 C.3     
  23 H23           -0.8919    -0.3860     0.4951 H       
  24 H24            0.0376    -0.3650    -1.0259 H       
  25 H25            1.2860    -1.5667     0.7780 H       
  26 H26            2.1497    -0.0912     0.2720 H       
  27 H27            0.1347     0.0775     2.5080 H       
  28 H28            1.7327    -0.6094     2.8517 H       
  29 H29            2.0803     3.3817     1.6796 H       
  30 H30            2.0104     1.5313    -0.5193 H       
  31 H31            1.1697     3.0968    -0.5184 H       
  32 H32            0.9433     3.2785     4.1143 H       
  33 H33            2.0090     3.8282     6.2521 H       
  34 H34            5.0364     0.8805     5.4994 H       
  35 H35            3.9641     0.3250     3.3663 H       
  36 H36           -2.6709     4.0228     2.1760 H       
  37 H37           -4.2016     4.2428     1.2946 H       
  38 H38           -3.3869     2.6603     1.2820 H       
  39 H39           -1.6866     5.9587    -0.8475 H       
  40 H40           -3.2087     6.1689     0.0510 H       
  41 H41           -1.6780     5.9490     0.9324 H       
  42 H42           -3.3988     2.6739    -1.2164 H       
  43 H43           -4.2136     4.2564    -1.2039 H       
  44 H44           -2.6915     4.0461    -2.1023 H       
@<TRIPOS>BOND
   1    1    2 1
   2    1    7 1
   3    1    8 am
   4    2    3 1
   5    2   23 1
   6    2   24 1
   7    3    4 1
   8    3   25 1
   9    3   26 1
  10    4    5 1
  11    4   27 1
  12    4   28 1
  13    5    6 2
  14    5   11 1
  15    6    7 1
  16    6   29 1
  17    7   30 1
  18    7   31 1
  19    8    9 2
  20    8   10 1
  21   10   19 1
  22   11   12 ar
  23   11   16 ar
  24   12   13 ar
  25   12   32 1
  26   13   14 ar
  27   13   33 1
  28   14   15 ar
  29   14   17 1
  30   15   16 ar
  31   15   34 1
  32   16   35 1
  33   17   18 3
  34   19   20 1
  35   19   22 1
  36   19   21 1
  37   20   36 1
  38   20   37 1
  39   20   38 1
  40   21   39 1
  41   21   40 1
  42   21   41 1
  43   22   42 1
  44   22   43 1
  45   22   44 1

#	End of record

