#	Name: ASD09116178
#	Creating user name:	WinNT
#	Creation time:	15. 06. 2019 21:21

#	Modifying user name:	WinNT
#	Modification time:	15. 06. 2019 21:21

#	Program:	/corina/corina34_cracker 3.40 0067  02.08.2006

@<TRIPOS>MOLECULE
ASD09116178
  78   85    0    0    0
SMALL
NO_CHARGES


@<TRIPOS>ATOM
   1 N1             0.0810     1.1597     0.1760 N.2     
   2 C2             0.0768    -0.2494     0.6073 C.3     
   3 C3             1.3016     1.5922     0.3412 C.2     
   4 N4             2.1291     0.6475     0.8330 N.2     
   5 C5             1.5129    -0.4885     1.0311 C.2     
   6 N6             1.7026     2.8790     0.0438 N.pl3   
   7 C7             3.0553     3.2317     0.1423 C.ar    
   8 C8             4.0503     2.2885    -0.1085 C.ar    
   9 C9             3.4202     4.5250     0.4848 C.ar    
  10 N10            4.6917     4.8648     0.5786 N.ar    
  11 C11            5.6628     3.9942     0.3524 C.ar    
  12 C12            5.3722     2.6808    -0.0000 C.ar    
  13 N13            2.0474    -1.6417     1.5154 N.pl3   
  14 C14           -0.8606    -0.4465     1.7707 C.ar    
  15 C15           -1.6573     0.6028     2.1783 C.ar    
  16 N16           -0.9037    -1.6270     2.3749 N.ar    
  17 C17           -1.7017    -1.8321     3.3823 C.ar    
  18 C18           -2.5412    -0.8251     3.8683 C.ar    
  19 C19           -2.5336     0.4243     3.2633 C.ar    
  20 C20           -1.8402    -3.1334     4.1509 C.3     
  21 C21           -1.5534    -2.7917     5.6276 C.3     
  22 C22           -2.4572    -1.6375     6.0666 C.3     
  23 N23           -3.3307    -1.2131     4.9548 N.3     
  24 C24           -4.1870    -2.3474     4.5556 C.3     
  25 C25           -3.4028     1.5184     3.7412 C.2     
  26 N26            6.9905     4.3995     0.4636 N.3     
  27 C27            7.0785     5.8168     0.8375 C.3     
  28 C28            8.5419     6.2635     0.8084 C.3     
  29 C29            9.3514     5.4073     1.7861 C.3     
  30 C30            9.2037     3.9320     1.4035 C.3     
  31 C31            7.7211     3.5529     1.4154 C.3     
  32 C32           -3.3313    -3.5208     4.0733 C.3     
  33 N33           10.7675     5.7923     1.7197 N.3     
  34 C34           10.9562     7.1890     2.1529 C.3     
  35 C35           11.9678     7.1735     3.3182 C.3     
  36 C36           12.7249     5.8361     3.1059 C.3     
  37 C37           11.5952     4.9175     2.5773 C.3     
  38 S38           -5.1317     1.3868     4.0367 S.3     
  39 C39           -5.2074     3.0731     4.5300 C.2     
  40 C40           -3.9914     3.6219     4.4517 C.2     
  41 C41           -2.9929     2.7718     4.0244 C.2     
  42 H42           -0.1966    -0.9040    -0.2203 H       
  43 H43            1.0482     3.5391    -0.2333 H       
  44 H44            3.7952     1.2751    -0.3808 H       
  45 H45            2.6550     5.2625     0.6767 H       
  46 H46            6.1687     1.9748    -0.1831 H       
  47 H47            2.9866    -1.6777     1.7552 H       
  48 H48            1.4894    -2.4281     1.6208 H       
  49 H49           -1.6084     1.5537     1.6687 H       
  50 H50           -1.1790    -3.9118     3.7701 H       
  51 H51           -1.7521    -3.6654     6.2482 H       
  52 H52           -0.5095    -2.4977     5.7366 H       
  53 H53           -3.0738    -1.9622     6.9047 H       
  54 H54           -1.8394    -0.7960     6.3800 H       
  55 H55           -4.7856    -2.6649     5.4094 H       
  56 H56           -4.8515    -2.0316     3.7513 H       
  57 H57            6.5020     6.4150     0.1318 H       
  58 H58            6.6771     5.9531     1.8417 H       
  59 H59            8.9400     6.1404    -0.1989 H       
  60 H60            8.6084     7.3114     1.1010 H       
  61 H61            8.9786     5.5600     2.7990 H       
  62 H62            9.6122     3.7723     0.4057 H       
  63 H63            9.7431     3.3141     2.1214 H       
  64 H64            7.3167     3.6998     2.4169 H       
  65 H65            7.6115     2.5068     1.1295 H       
  66 H66           -3.5914    -3.7609     3.0424 H       
  67 H67           -3.5148    -4.3889     4.7064 H       
  68 H68           11.3497     7.7831     1.3281 H       
  69 H69           10.0068     7.6036     2.4916 H       
  70 H70           12.6518     8.0192     3.2460 H       
  71 H71           11.4506     7.1755     4.2776 H       
  72 H72           13.5159     5.9486     2.3644 H       
  73 H73           13.1252     5.4603     4.0476 H       
  74 H74           11.0034     4.5285     3.4059 H       
  75 H75           12.0143     4.0990     1.9920 H       
  76 H76           -6.1020     3.5878     4.8479 H       
  77 H77           -3.8035     4.6540     4.7085 H       
  78 H78           -1.9655     3.0870     3.9171 H       
@<TRIPOS>BOND
   1    1    2 1
   2    1    3 2
   3    2   14 1
   4    2    5 1
   5    2   42 1
   6    3    4 1
   7    3    6 1
   8    4    5 2
   9    5   13 1
  10    6    7 1
  11    6   43 1
  12    7    8 ar
  13    7    9 ar
  14    8   12 ar
  15    8   44 1
  16    9   10 ar
  17    9   45 1
  18   10   11 ar
  19   11   12 ar
  20   11   26 1
  21   12   46 1
  22   13   47 1
  23   13   48 1
  24   14   15 ar
  25   14   16 ar
  26   15   19 ar
  27   15   49 1
  28   16   17 ar
  29   17   18 ar
  30   17   20 1
  31   18   19 ar
  32   18   23 1
  33   19   25 1
  34   20   21 1
  35   20   32 1
  36   20   50 1
  37   21   22 1
  38   21   51 1
  39   21   52 1
  40   22   23 1
  41   22   53 1
  42   22   54 1
  43   23   24 1
  44   24   32 1
  45   24   55 1
  46   24   56 1
  47   25   38 1
  48   25   41 2
  49   26   27 1
  50   26   31 1
  51   27   28 1
  52   27   57 1
  53   27   58 1
  54   28   29 1
  55   28   59 1
  56   28   60 1
  57   29   30 1
  58   29   33 1
  59   29   61 1
  60   30   31 1
  61   30   62 1
  62   30   63 1
  63   31   64 1
  64   31   65 1
  65   32   66 1
  66   32   67 1
  67   33   34 1
  68   33   37 1
  69   34   35 1
  70   34   68 1
  71   34   69 1
  72   35   36 1
  73   35   70 1
  74   35   71 1
  75   36   37 1
  76   36   72 1
  77   36   73 1
  78   37   74 1
  79   37   75 1
  80   38   39 1
  81   39   40 2
  82   39   76 1
  83   40   41 1
  84   40   77 1
  85   41   78 1

#	End of record

