#	Name: ASD07931846
#	Creating user name:	WinNT
#	Creation time:	15. 06. 2019 21:13

#	Modifying user name:	WinNT
#	Modification time:	15. 06. 2019 21:13

#	Program:	/corina/corina34_cracker 3.40 0067  02.08.2006

@<TRIPOS>MOLECULE
ASD07931846
  39   40    0    0    0
SMALL
NO_CHARGES


@<TRIPOS>ATOM
   1 C1            -0.0225     1.8097     0.0120 C.3     
   2 S2             0.0021    -0.0041     0.0020 S.o2    
   3 O3             0.8448    -0.4970     1.0346 O.2     
   4 O4            -1.3093    -0.5195    -0.1821 O.2     
   5 O5             0.7319    -0.3669    -1.2834 O.3     
   6 C6             2.1455    -0.1659    -1.2258 C.3     
   7 O7             2.3400     0.3405    -3.6071 O.3     
   8 C8             2.7718    -0.5609    -2.5646 C.3     
   9 C9             4.3067    -0.3951    -2.5101 C.3     
  10 C10            4.6785     0.1230    -3.9175 C.3     
  11 C11            3.3243     0.2089    -4.6558 C.3     
  12 C12            3.2943     1.4155    -5.5580 C.ar    
  13 C13            3.4620     1.2633    -6.9217 C.ar    
  14 C14            3.4345     2.3702    -7.7493 C.ar    
  15 C15            3.2388     3.6293    -7.2133 C.ar    
  16 C16            3.0701     3.7814    -5.8497 C.ar    
  17 C17            3.0933     2.6741    -5.0226 C.ar    
  18 C18            3.2098     4.8361    -8.1154 C.3     
  19 F19            1.8975     5.0690    -8.5406 F       
  20 F20            3.6784     5.9530    -7.4153 F       
  21 F21            4.0265     4.6065    -9.2278 F       
  22 C22            4.9820    -1.7408    -2.2385 C.3     
  23 H23            1.0001     2.1870     0.0043 H       
  24 H24           -0.5497     2.1708    -0.8711 H       
  25 H25           -0.5327     2.1613     0.9088 H       
  26 H26            2.3551     0.8842    -1.0223 H       
  27 H27            2.5679    -0.7812    -0.4314 H       
  28 H28            2.5099    -1.5881    -2.8186 H       
  29 H29            4.5853     0.3337    -1.7489 H       
  30 H30            5.1410     1.1079    -3.8520 H       
  31 H31            5.3435    -0.5796    -4.4197 H       
  32 H32            3.1472    -0.7002    -5.2305 H       
  33 H33            3.6150     0.2796    -7.3404 H       
  34 H34            3.5663     2.2513    -8.8146 H       
  35 H35            2.9175     4.7651    -5.4309 H       
  36 H36            2.9578     2.7925    -3.9577 H       
  37 H37            4.7298    -2.4412    -3.0347 H       
  38 H38            6.0629    -1.6044    -2.2035 H       
  39 H39            4.6345    -2.1356    -1.2837 H       
@<TRIPOS>BOND
   1    1    2 1
   2    1   23 1
   3    1   24 1
   4    1   25 1
   5    2    3 2
   6    2    4 2
   7    2    5 1
   8    5    6 1
   9    6    8 1
  10    6   26 1
  11    6   27 1
  12    7    8 1
  13    7   11 1
  14    8    9 1
  15    8   28 1
  16    9   10 1
  17    9   22 1
  18    9   29 1
  19   10   11 1
  20   10   30 1
  21   10   31 1
  22   11   12 1
  23   11   32 1
  24   12   13 ar
  25   12   17 ar
  26   13   14 ar
  27   13   33 1
  28   14   15 ar
  29   14   34 1
  30   15   16 ar
  31   15   18 1
  32   16   17 ar
  33   16   35 1
  34   17   36 1
  35   18   19 1
  36   18   20 1
  37   18   21 1
  38   22   37 1
  39   22   38 1
  40   22   39 1

#	End of record

