#	Name: ASD01883664
#	Creating user name:	WinNT
#	Creation time:	15. 06. 2019 19:46

#	Modifying user name:	WinNT
#	Modification time:	15. 06. 2019 19:46

#	Program:	/corina/corina34_cracker 3.40 0067  02.08.2006

@<TRIPOS>MOLECULE
ASD01883664
  60   64    0    0    0
SMALL
NO_CHARGES


@<TRIPOS>ATOM
   1 C1            -0.4070     0.7384    -1.1126 C.2     
   2 C2             0.0021    -0.0041     0.0020 C.2     
   3 C3            -0.8269    -0.0436     1.1386 C.2     
   4 C4            -1.9990     0.6181     1.1664 C.2     
   5 N5            -2.4375     1.3532     0.1042 N.pl3   
   6 C6            -1.6865     1.4486    -1.0386 C.2     
   7 C7            -3.5720     2.0989    -0.1027 C.2     
   8 C8            -3.4873     2.6148    -1.3454 C.2     
   9 N9            -2.3371     2.2111    -1.8983 N.2     
  10 N10            1.2030    -0.6889    -0.0141 N.pl3   
  11 C11            1.2305    -2.1543     0.0880 C.3     
  12 C12            2.1618    -2.5511     1.2378 C.3     
  13 C13            3.5346    -1.9102     1.0215 C.3     
  14 C14            3.3932    -0.3864     1.0183 C.3     
  15 C15            2.4756     0.0345    -0.1397 C.3     
  16 C16            4.4635    -2.3260     2.1329 C.ar    
  17 C17            5.6254    -3.0159     1.8392 C.ar    
  18 C18            6.4789    -3.3984     2.8553 C.ar    
  19 C19            6.1691    -3.0893     4.1737 C.ar    
  20 C20            5.0011    -2.3961     4.4652 C.ar    
  21 C21            4.1549    -2.0117     3.4438 C.ar    
  22 C22           -4.7001     2.3019     0.8756 C.3     
  23 C23           -5.8074     1.2838     0.5957 C.3     
  24 F24           -5.2964    -0.0111     0.7354 F       
  25 F25           -6.8547     1.4723     1.5039 F       
  26 F26           -6.2834     1.4592    -0.7080 F       
  27 N27            7.0298    -3.4750     5.2038 N.3     
  28 C28            6.5110    -3.0481     6.5115 C.3     
  29 C29            7.4519    -3.5418     7.6137 C.3     
  30 O30            8.7701    -3.0455     7.3659 O.3     
  31 C31            9.3066    -3.4428     6.1011 C.3     
  32 C32            8.3845    -2.9480     4.9836 C.3     
  33 C33            0.4055     0.8066    -2.2898 C.1     
  34 N34            1.0500     0.8606    -3.2237 N.1     
  35 H35           -0.5180    -0.6142     2.0020 H       
  36 H36           -2.6099     0.5652     2.0554 H       
  37 H37           -4.2232     3.2506    -1.8152 H       
  38 H38            0.2253    -2.5257     0.2872 H       
  39 H39            1.6008    -2.5787    -0.8452 H       
  40 H40            1.7426    -2.2033     2.1820 H       
  41 H41            2.2666    -3.6358     1.2634 H       
  42 H42            3.9423    -2.2391     0.0656 H       
  43 H43            2.9625    -0.0590     1.9645 H       
  44 H44            4.3745     0.0697     0.8875 H       
  45 H45            2.9498    -0.2117    -1.0897 H       
  46 H46            2.2912     1.1076    -0.0883 H       
  47 H47            5.8654    -3.2562     0.8140 H       
  48 H48            7.3859    -3.9375     2.6252 H       
  49 H49            4.7573    -2.1542     5.4892 H       
  50 H50            3.2468    -1.4724     3.6697 H       
  51 H51           -4.3292     2.1653     1.8914 H       
  52 H52           -5.0982     3.3108     0.7668 H       
  53 H53            6.4533    -1.9600     6.5426 H       
  54 H54            5.5179    -3.4704     6.6645 H       
  55 H55            7.1022    -3.1792     8.5802 H       
  56 H56            7.4681    -4.6317     7.6173 H       
  57 H57           10.2982    -3.0085     5.9738 H       
  58 H58            9.3767    -4.5298     6.0607 H       
  59 H59            8.7589    -3.2973     4.0214 H       
  60 H60            8.3567    -1.8584     4.9903 H       
@<TRIPOS>BOND
   1    1    2 2
   2    1   33 1
   3    1    6 1
   4    2    3 1
   5    2   10 1
   6    3    4 2
   7    3   35 1
   8    4    5 1
   9    4   36 1
  10    5    6 1
  11    5    7 1
  12    6    9 2
  13    7    8 2
  14    7   22 1
  15    8    9 1
  16    8   37 1
  17   10   11 1
  18   10   15 1
  19   11   12 1
  20   11   38 1
  21   11   39 1
  22   12   13 1
  23   12   40 1
  24   12   41 1
  25   13   14 1
  26   13   16 1
  27   13   42 1
  28   14   15 1
  29   14   43 1
  30   14   44 1
  31   15   45 1
  32   15   46 1
  33   16   17 ar
  34   16   21 ar
  35   17   18 ar
  36   17   47 1
  37   18   19 ar
  38   18   48 1
  39   19   20 ar
  40   19   27 1
  41   20   21 ar
  42   20   49 1
  43   21   50 1
  44   22   23 1
  45   22   51 1
  46   22   52 1
  47   23   24 1
  48   23   25 1
  49   23   26 1
  50   27   28 1
  51   27   32 1
  52   28   29 1
  53   28   53 1
  54   28   54 1
  55   29   30 1
  56   29   55 1
  57   29   56 1
  58   30   31 1
  59   31   32 1
  60   31   57 1
  61   31   58 1
  62   32   59 1
  63   32   60 1
  64   33   34 3

#	End of record

