#	Name: ASD02198840
#	Creating user name:	WinNT
#	Creation time:	15. 06. 2019 20:20

#	Modifying user name:	WinNT
#	Modification time:	15. 06. 2019 20:20

#	Program:	/corina/corina34_cracker 3.40 0067  02.08.2006

@<TRIPOS>MOLECULE
ASD02198840
  54   58    0    0    0
SMALL
NO_CHARGES


@<TRIPOS>ATOM
   1 C1            -0.0433     1.5018    -0.1148 C.2     
   2 C2            -0.0730     0.1620     0.0977 C.2     
   3 N3             1.0712    -0.5395     0.2601 N.pl3   
   4 N4             2.2357    -0.0047     0.2260 N.2     
   5 C5             2.4070     1.2850     0.0277 C.2     
   6 C6             1.2213     2.1359    -0.1603 C.2     
   7 C7             0.9798    -1.9188     0.4766 C.ar    
   8 C8             1.5817    -2.4907     1.5968 C.ar    
   9 C9             1.4890    -3.8561     1.8085 C.ar    
  10 C10            0.7974    -4.6520     0.9057 C.ar    
  11 C11            0.1982    -4.0798    -0.2101 C.ar    
  12 C12            0.2846    -2.7187    -0.4209 C.ar    
  13 C13            3.7639     1.8674    -0.0055 C.2     
  14 N14            4.3053     2.6076    -1.0188 N.pl3   
  15 N15            5.6073     2.9593    -0.6416 N.2     
  16 C16            5.8518     2.4597     0.5436 C.2     
  17 C17            4.7201     1.7718     0.9817 C.2     
  18 C18            3.6716     2.9526    -2.2193 C.ar    
  19 C19            3.8051     4.2359    -2.7328 C.ar    
  20 C20            3.1794     4.5728    -3.9170 C.ar    
  21 C21            2.4205     3.6338    -4.5913 C.ar    
  22 C22            2.2851     2.3552    -4.0823 C.ar    
  23 C23            2.9131     2.0104    -2.9015 C.ar    
  24 O24            1.3242     3.3391    -0.3482 O.2     
  25 N25            0.7038    -6.0320     1.1190 N.am    
  26 C26            0.0045    -6.9871     0.2458 C.3     
  27 C27            0.2164    -8.3448     0.9430 C.3     
  28 O28            1.0046    -8.0159     2.1235 O.3     
  29 C29            1.2415    -6.6995     2.1491 C.2     
  30 O30            1.8794    -6.1575     3.0299 O.2     
  31 O31            2.2587    -1.7095     2.4791 O.3     
  32 C32            2.8499    -2.3635     3.6038 C.3     
  33 C33            7.1409     2.6075     1.3099 C.3     
  34 H34           -0.9548     2.0653    -0.2493 H       
  35 H35           -1.0228    -0.3505     0.1381 H       
  36 H36            1.9546    -4.3014     2.6752 H       
  37 H37           -0.3391    -4.7009    -0.9115 H       
  38 H38           -0.1819    -2.2764    -1.2887 H       
  39 H39            4.6149     1.2520     1.9225 H       
  40 H40            4.3974     4.9698    -2.2066 H       
  41 H41            3.2826     5.5708    -4.3168 H       
  42 H42            1.9321     3.8997    -5.5171 H       
  43 H43            1.6914     1.6242    -4.6110 H       
  44 H44            2.8073     1.0115    -2.5046 H       
  45 H45           -1.0573    -6.7474     0.1890 H       
  46 H46            0.4503    -6.9937    -0.7488 H       
  47 H47           -0.7405    -8.7797     1.2314 H       
  48 H48            0.7666    -9.0259     0.2938 H       
  49 H49            2.0726    -2.8578     4.1866 H       
  50 H50            3.5699    -3.1043     3.2562 H       
  51 H51            3.3581    -1.6272     4.2264 H       
  52 H52            7.0939     3.5020     1.9310 H       
  53 H53            7.2895     1.7329     1.9433 H       
  54 H54            7.9719     2.6945     0.6099 H       
@<TRIPOS>BOND
   1    1    2 2
   2    1    6 1
   3    1   34 1
   4    2    3 1
   5    2   35 1
   6    3    4 1
   7    3    7 1
   8    4    5 2
   9    5    6 1
  10    5   13 1
  11    6   24 2
  12    7    8 ar
  13    7   12 ar
  14    8    9 ar
  15    8   31 1
  16    9   10 ar
  17    9   36 1
  18   10   11 ar
  19   10   25 1
  20   11   12 ar
  21   11   37 1
  22   12   38 1
  23   13   14 1
  24   13   17 2
  25   14   15 1
  26   14   18 1
  27   15   16 2
  28   16   17 1
  29   16   33 1
  30   17   39 1
  31   18   19 ar
  32   18   23 ar
  33   19   20 ar
  34   19   40 1
  35   20   21 ar
  36   20   41 1
  37   21   22 ar
  38   21   42 1
  39   22   23 ar
  40   22   43 1
  41   23   44 1
  42   25   26 1
  43   25   29 am
  44   26   27 1
  45   26   45 1
  46   26   46 1
  47   27   28 1
  48   27   47 1
  49   27   48 1
  50   28   29 1
  51   29   30 2
  52   31   32 1
  53   32   49 1
  54   32   50 1
  55   32   51 1
  56   33   52 1
  57   33   53 1
  58   33   54 1

#	End of record

