#	Name: ASD03731575
#	Creating user name:	WinNT
#	Creation time:	15. 06. 2019 20:46

#	Modifying user name:	WinNT
#	Modification time:	15. 06. 2019 20:46

#	Program:	/corina/corina34_cracker 3.40 0067  02.08.2006

@<TRIPOS>MOLECULE
ASD03731575
  46   48    0    0    0
SMALL
NO_CHARGES


@<TRIPOS>ATOM
   1 C1             2.7955    -3.8904    -5.0913 C.2     
   2 C2             2.0808    -3.9673    -3.8022 C.ar    
   3 C3             0.8006    -4.5244    -3.7430 C.ar    
   4 C4             0.1372    -4.5943    -2.5385 C.ar    
   5 C5             0.7391    -4.1111    -1.3822 C.ar    
   6 C6             2.0124    -3.5557    -1.4371 C.ar    
   7 C7             2.6850    -3.4883    -2.6367 C.ar    
   8 O8             2.2703    -4.3121    -6.1036 O.2     
   9 N9             4.0279    -3.3477    -5.1473 N.am    
  10 S10            4.8296    -3.2614    -6.5937 S.o2    
  11 O11            6.0786    -2.6675    -6.2672 O.2     
  12 O12            4.7600    -4.5825    -7.1124 O.2     
  13 C13            3.8299    -2.1294    -7.5986 C.3     
  14 O14            0.0819    -4.1814    -0.1972 O.3     
  15 C15           -1.1580    -4.7365    -0.1874 C.ar    
  16 C16           -1.2992    -6.1172    -0.2359 C.ar    
  17 C17           -2.5558    -6.6841    -0.2256 C.ar    
  18 C18           -3.6867    -5.8687    -0.1665 C.ar    
  19 C19           -3.5410    -4.4817    -0.1179 C.ar    
  20 C20           -2.2811    -3.9221    -0.1231 C.ar    
  21 N21           -5.3443    -7.7574     0.1817 N.pl3   
  22 N22           -6.7310    -7.9109     0.0569 N.2     
  23 C23           -7.2414    -6.7722    -0.3381 C.2     
  24 C24           -6.2071    -5.8471    -0.4818 C.2     
  25 C25           -5.0370    -6.4732    -0.1558 C.2     
  26 C26           -8.7021    -6.5053    -0.5955 C.3     
  27 F27           -9.4519    -7.6310    -0.2380 F       
  28 F28           -9.1168    -5.4075     0.1661 F       
  29 F29           -8.8935    -6.2296    -1.9537 F       
  30 C30           -4.3954    -8.7901     0.6051 C.3     
  31 H31            0.3321    -4.8993    -4.6410 H       
  32 H32           -0.8523    -5.0247    -2.4920 H       
  33 H33            2.4766    -3.1811    -0.5367 H       
  34 H34            3.6762    -3.0615    -2.6776 H       
  35 H35            4.4452    -3.0076    -4.3404 H       
  36 H36            3.7741    -1.1588    -7.1058 H       
  37 H37            4.2894    -2.0127    -8.5801 H       
  38 H38            2.8254    -2.5367    -7.7139 H       
  39 H39           -0.4235    -6.7477    -0.2820 H       
  40 H40           -2.6649    -7.7579    -0.2637 H       
  41 H41           -4.4141    -3.8476    -0.0724 H       
  42 H42           -2.1674    -2.8489    -0.0810 H       
  43 H43           -6.3125    -4.8189    -0.7950 H       
  44 H44           -3.9510    -9.2575    -0.2736 H       
  45 H45           -3.6112    -8.3365     1.2112 H       
  46 H46           -4.9181    -9.5448     1.1928 H       
@<TRIPOS>BOND
   1    1    2 1
   2    1    8 2
   3    1    9 am
   4    2    3 ar
   5    2    7 ar
   6    3    4 ar
   7    3   31 1
   8    4    5 ar
   9    4   32 1
  10    5    6 ar
  11    5   14 1
  12    6    7 ar
  13    6   33 1
  14    7   34 1
  15    9   10 am
  16    9   35 1
  17   10   11 2
  18   10   12 2
  19   10   13 1
  20   13   36 1
  21   13   37 1
  22   13   38 1
  23   14   15 1
  24   15   16 ar
  25   15   20 ar
  26   16   17 ar
  27   16   39 1
  28   17   18 ar
  29   17   40 1
  30   18   19 ar
  31   18   25 1
  32   19   20 ar
  33   19   41 1
  34   20   42 1
  35   21   22 1
  36   21   25 1
  37   21   30 1
  38   22   23 2
  39   23   24 1
  40   23   26 1
  41   24   25 2
  42   24   43 1
  43   26   27 1
  44   26   28 1
  45   26   29 1
  46   30   44 1
  47   30   45 1
  48   30   46 1

#	End of record

