#	Name: ASD01883929
#	Creating user name:	WinNT
#	Creation time:	15. 06. 2019 19:47

#	Modifying user name:	WinNT
#	Modification time:	15. 06. 2019 19:47

#	Program:	/corina/corina34_cracker 3.40 0067  02.08.2006

@<TRIPOS>MOLECULE
ASD01883929
  59   63    0    0    0
SMALL
NO_CHARGES


@<TRIPOS>ATOM
   1 N1            -0.5936     2.1908    -2.1362 N.am    
   2 C2            -2.0251     2.1339    -2.5041 C.3     
   3 C3            -2.7661     1.4138    -1.3699 C.3     
   4 N4            -2.1693     0.0931    -1.1435 N.3     
   5 C5            -1.0541    -0.1783    -2.0590 C.3     
   6 C6             0.0381     0.8839    -1.8580 C.3     
   7 C7             0.0879     3.3514    -2.0654 C.2     
   8 C8             1.5231     3.3471    -1.6909 C.2     
   9 O9            -0.4735     4.4012    -2.3082 O.2     
  10 C10            2.3790     4.4773    -1.5718 C.2     
  11 C11            3.5708     3.9467    -1.2124 C.2     
  12 O12            3.3939     2.6205    -1.1365 O.3     
  13 N13            2.2570     2.3026    -1.3976 N.2     
  14 C14           -2.1450     1.2812    -3.7752 C.3     
  15 C15           -1.5553    -0.1050    -3.5037 C.3     
  16 C16           -3.1323    -0.9091    -1.2195 C.ar    
  17 N17           -4.1166    -0.8021    -2.0983 N.ar    
  18 C18           -3.0427    -2.0104    -0.3751 C.ar    
  19 C19           -4.0031    -3.0048    -0.4551 C.ar    
  20 C20           -5.0254    -2.8604    -1.3835 C.ar    
  21 C21           -5.0538    -1.7318    -2.2052 C.ar    
  22 N22           -6.1277    -3.6414    -1.7279 N.am    
  23 C23           -6.7974    -3.0109    -2.7117 C.2     
  24 N24           -6.1723    -1.8592    -3.0188 N.am    
  25 C25           -6.6007    -0.8998    -4.0397 C.3     
  26 C26           -6.4938    -4.9253    -1.1248 C.3     
  27 O27           -7.8115    -3.4216    -3.2442 O.2     
  28 C28           -7.4178    -4.6825     0.0702 C.3     
  29 C29           -8.6823    -3.9614    -0.4010 C.3     
  30 C30           -7.8001    -6.0234     0.7001 C.3     
  31 C31           -6.6950    -3.8197     1.1067 C.3     
  32 H32           -2.4273     3.1356    -2.6561 H       
  33 H33           -2.6935     2.0052    -0.4572 H       
  34 H34           -3.8153     1.2955    -1.6407 H       
  35 H35           -0.6449    -1.1676    -1.8543 H       
  36 H36            0.8629     0.7072    -2.5482 H       
  37 H37            0.3981     0.8599    -0.8294 H       
  38 H38            2.1345     5.5171    -1.7314 H       
  39 H39            4.4868     4.4870    -1.0239 H       
  40 H40           -3.1950     1.1833    -4.0509 H       
  41 H41           -1.5963     1.7582    -4.5873 H       
  42 H42           -0.7243    -0.2855    -4.1855 H       
  43 H43           -2.3231    -0.8627    -3.6601 H       
  44 H44           -2.2328    -2.0895     0.3350 H       
  45 H45           -3.9578    -3.8711     0.1882 H       
  46 H46           -7.5105    -1.2612    -4.5190 H       
  47 H47           -6.7951     0.0655    -3.5722 H       
  48 H48           -5.8152    -0.7898    -4.7874 H       
  49 H49           -7.0087    -5.5400    -1.8632 H       
  50 H50           -5.5930    -5.4390    -0.7891 H       
  51 H51           -9.1972    -4.5760    -1.1394 H       
  52 H52           -9.3405    -3.7884     0.4503 H       
  53 H53           -8.4099    -3.0061    -0.8498 H       
  54 H54           -6.8992    -6.5371     1.0359 H       
  55 H55           -8.4583    -5.8503     1.5515 H       
  56 H56           -8.3150    -6.6380    -0.0383 H       
  57 H57           -6.4227    -2.8645     0.6579 H       
  58 H58           -7.3533    -3.6467     1.9581 H       
  59 H59           -5.7942    -4.3334     1.4424 H       
@<TRIPOS>BOND
   1    1    2 1
   2    1    7 am
   3    1    6 1
   4    2    3 1
   5    2   14 1
   6    2   32 1
   7    3    4 1
   8    3   33 1
   9    3   34 1
  10    4    5 1
  11    4   16 1
  12    5    6 1
  13    5   15 1
  14    5   35 1
  15    6   36 1
  16    6   37 1
  17    7    8 1
  18    7    9 2
  19    8   10 1
  20    8   13 2
  21   10   11 2
  22   10   38 1
  23   11   12 1
  24   11   39 1
  25   12   13 1
  26   14   15 1
  27   14   40 1
  28   14   41 1
  29   15   42 1
  30   15   43 1
  31   16   17 ar
  32   16   18 ar
  33   17   21 ar
  34   18   19 ar
  35   18   44 1
  36   19   20 ar
  37   19   45 1
  38   20   21 ar
  39   20   22 1
  40   21   24 1
  41   22   23 am
  42   22   26 1
  43   23   24 am
  44   23   27 2
  45   24   25 1
  46   25   46 1
  47   25   47 1
  48   25   48 1
  49   26   28 1
  50   26   49 1
  51   26   50 1
  52   28   29 1
  53   28   30 1
  54   28   31 1
  55   29   51 1
  56   29   52 1
  57   29   53 1
  58   30   54 1
  59   30   55 1
  60   30   56 1
  61   31   57 1
  62   31   58 1
  63   31   59 1

#	End of record

