#	Name: ASD00844239
#	Creating user name:	WinNT
#	Creation time:	15. 06. 2019 18:49

#	Modifying user name:	WinNT
#	Modification time:	15. 06. 2019 18:49

#	Program:	/corina/corina34_cracker 3.40 0067  02.08.2006

@<TRIPOS>MOLECULE
ASD00844239
  92   97    0    0    0
SMALL
NO_CHARGES


@<TRIPOS>ATOM
   1 C1            -0.0150     1.3802     0.0253 C.ar    
   2 C2             0.0028    -0.0067     0.0107 C.ar    
   3 C3             1.2146    -0.6825    -0.0068 C.ar    
   4 C4             2.3997     0.0270    -0.0097 C.ar    
   5 C5             2.3792     1.4096     0.0054 C.ar    
   6 C6             1.1732     2.0853     0.0224 C.ar    
   7 C7             1.2376    -2.1892    -0.0222 C.3     
   8 C8             0.4953    -2.7189    -1.2306 C.2     
   9 N9             2.6177    -2.6805    -0.0113 N.am    
  10 C10            3.4640    -2.3347    -1.0016 C.2     
  11 N11            4.7595    -2.7012    -0.9396 N.am    
  12 O12            3.0588    -1.6921    -1.9509 O.2     
  13 C13            5.6738    -2.4348    -2.0604 C.3     
  14 C14            6.9203    -1.7300    -1.5148 C.3     
  15 N15            7.4924    -2.5291    -0.4230 N.3     
  16 C16            6.5577    -2.6362     0.7053 C.3     
  17 C17            5.2978    -3.3727     0.2531 C.3     
  18 C18            8.7825    -1.9780     0.0127 C.3     
  19 C19            9.2876    -2.7584     1.2294 C.3     
  20 C20           10.6596    -2.2198     1.6411 C.3     
  21 N21           11.5989    -2.3622     0.5214 N.3     
  22 C22           11.1591    -1.5832    -0.6431 C.3     
  23 C23            9.8019    -2.1028    -1.1230 C.3     
  24 H24           12.5337    -2.1022     0.7982 H       
  25 O25            0.7758    -2.5176    -2.3932 O.2     
  26 N26           -0.5318    -3.4544    -0.7738 N.am    
  27 C27            0.4654    -2.7431     1.1536 C.ar    
  28 C28           -0.5801    -3.4906     0.6169 C.ar    
  29 C29            0.6281    -2.6278     2.5109 C.ar    
  30 C30           -0.2663    -3.2683     3.3760 C.ar    
  31 C31           -1.3197    -4.0214     2.8437 C.ar    
  32 C32           -1.4716    -4.1306     1.4780 C.ar    
  33 F33           -2.1884    -4.6435     3.6703 F       
  34 C34           -0.9812    -5.8432    -2.0647 C.ar    
  35 C35            0.1992    -5.9972    -2.7775 C.ar    
  36 C36           -1.6548    -6.9539    -1.5929 C.ar    
  37 C37           -1.1549    -8.2199    -1.8294 C.ar    
  38 C38            0.0255    -8.3792    -2.5420 C.ar    
  39 C39            0.7027    -7.2668    -3.0166 C.ar    
  40 O40            0.5165    -9.6248    -2.7746 O.3     
  41 O41            0.8609    -4.9047    -3.2415 O.3     
  42 C42           -0.2338   -10.7251    -2.2566 C.3     
  43 C43            2.0695    -5.1380    -3.9674 C.3     
  44 C44            2.6676    -3.7997    -4.4058 C.3     
  45 S45           -1.6180    -4.2299    -1.7543 S.o2    
  46 O46           -2.7991    -4.4060    -0.9841 O.2     
  47 O47           -1.5965    -3.5438    -2.9985 O.2     
  48 O48           -1.1645    -0.7025     0.0140 O.3     
  49 C49           -2.3736     0.0590     0.0329 C.3     
  50 C50           -3.5739    -0.8898     0.0338 C.3     
  51 F51           -3.5412    -1.6844    -1.1172 F       
  52 F52           -3.5205    -1.7082     1.1672 F       
  53 C53           -0.1050    -3.1546     4.7944 C.1     
  54 N54            0.0229    -3.0645     5.9195 N.1     
  55 H55           -0.9569     1.9085     0.0345 H       
  56 H56            3.3431    -0.4985    -0.0233 H       
  57 H57            3.3069     1.9626     0.0038 H       
  58 H58            1.1599     3.1651     0.0341 H       
  59 H59            2.9224    -3.2547     0.7087 H       
  60 H60            5.9612    -3.3756    -2.5300 H       
  61 H61            5.1807    -1.7934    -2.7908 H       
  62 H62            7.6562    -1.6236    -2.3119 H       
  63 H63            6.6456    -0.7444    -1.1390 H       
  64 H64            7.0306    -3.1870     1.5183 H       
  65 H65            6.2881    -1.6380     1.0502 H       
  66 H66            4.5563    -3.3541     1.0518 H       
  67 H67            5.5462    -4.4044     0.0043 H       
  68 H68            8.6590    -0.9282     0.2788 H       
  69 H69            8.5867    -2.6382     2.0554 H       
  70 H70            9.3729    -3.8147     0.9745 H       
  71 H71           10.5710    -1.1670     1.9091 H       
  72 H72           11.0285    -2.7828     2.4984 H       
  73 H73           11.0681    -0.5334    -0.3644 H       
  74 H74           11.8906    -1.6839    -1.4448 H       
  75 H75            9.8953    -3.1488    -1.4149 H       
  76 H76            9.4685    -1.5142    -1.9777 H       
  77 H77            1.4444    -2.0446     2.9108 H       
  78 H78           -2.2859    -4.7130     1.0727 H       
  79 H79           -2.5734    -6.8319    -1.0382 H       
  80 H80           -1.6827    -9.0863    -1.4591 H       
  81 H81            1.6212    -7.3887    -3.5716 H       
  82 H82           -1.2339   -10.7190    -2.6899 H       
  83 H83            0.2672   -11.6589    -2.5122 H       
  84 H84           -0.3068   -10.6369    -1.1727 H       
  85 H85            2.7810    -5.6623    -3.3294 H       
  86 H86            1.8539    -5.7451    -4.8466 H       
  87 H87            3.5895    -3.9777    -4.9595 H       
  88 H88            1.9561    -3.2754    -5.0438 H       
  89 H89            2.8832    -3.1926    -3.5266 H       
  90 H90           -2.3991     0.6781     0.9296 H       
  91 H91           -2.4152     0.6967    -0.8502 H       
  92 H92           -4.4961    -0.3089     0.0482 H       
@<TRIPOS>BOND
   1    1    2 ar
   2    1    6 ar
   3    1   55 1
   4    2    3 ar
   5    2   48 1
   6    3    4 ar
   7    3    7 1
   8    4    5 ar
   9    4   56 1
  10    5    6 ar
  11    5   57 1
  12    6   58 1
  13    7    8 1
  14    7    9 1
  15    7   27 1
  16    8   25 2
  17    8   26 am
  18    9   10 am
  19    9   59 1
  20   10   11 am
  21   10   12 2
  22   11   13 1
  23   11   17 1
  24   13   14 1
  25   13   60 1
  26   13   61 1
  27   14   15 1
  28   14   62 1
  29   14   63 1
  30   15   16 1
  31   15   18 1
  32   16   17 1
  33   16   64 1
  34   16   65 1
  35   17   66 1
  36   17   67 1
  37   18   19 1
  38   18   23 1
  39   18   68 1
  40   19   20 1
  41   19   69 1
  42   19   70 1
  43   20   21 1
  44   20   71 1
  45   20   72 1
  46   21   22 1
  47   21   24 1
  48   22   23 1
  49   22   73 1
  50   22   74 1
  51   23   75 1
  52   23   76 1
  53   26   45 am
  54   26   28 1
  55   27   28 ar
  56   27   29 ar
  57   28   32 ar
  58   29   30 ar
  59   29   77 1
  60   30   31 ar
  61   30   53 1
  62   31   32 ar
  63   31   33 1
  64   32   78 1
  65   34   35 ar
  66   34   36 ar
  67   34   45 1
  68   35   41 1
  69   35   39 ar
  70   36   37 ar
  71   36   79 1
  72   37   38 ar
  73   37   80 1
  74   38   39 ar
  75   38   40 1
  76   39   81 1
  77   40   42 1
  78   41   43 1
  79   42   82 1
  80   42   83 1
  81   42   84 1
  82   43   44 1
  83   43   85 1
  84   43   86 1
  85   44   87 1
  86   44   88 1
  87   44   89 1
  88   45   46 2
  89   45   47 2
  90   48   49 1
  91   49   50 1
  92   49   90 1
  93   49   91 1
  94   50   51 1
  95   50   52 1
  96   50   92 1
  97   53   54 3

#	End of record

