#	Name: ASD01900625
#	Creating user name:	WinNT
#	Creation time:	15. 06. 2019 19:52

#	Modifying user name:	WinNT
#	Modification time:	15. 06. 2019 19:52

#	Program:	/corina/corina34_cracker 3.40 0067  02.08.2006

@<TRIPOS>MOLECULE
ASD01900625
  34   37    0    0    0
SMALL
NO_CHARGES


@<TRIPOS>ATOM
   1 C1            -0.0167     1.3827     0.0096 C.ar    
   2 C2             0.0021    -0.0041     0.0020 C.ar    
   3 C3            -1.1754    -0.7243     0.0115 C.ar    
   4 C4            -2.3954    -0.0613     0.0291 C.ar    
   5 C5            -2.4107     1.3401     0.0328 C.ar    
   6 C6            -1.2228     2.0592     0.0306 C.ar    
   7 O7            -3.5539    -0.7551     0.0498 O.3     
   8 C8            -4.7325    -0.1720    -0.2285 C.2     
   9 C9            -4.9000     1.1714    -0.2458 C.2     
  10 C10           -3.7293     2.0232     0.0379 C.2     
  11 N11           -3.8461     3.3060     0.2804 N.2     
  12 C12           -5.8939    -1.0331    -0.5286 C.ar    
  13 N13           -7.0722    -0.4683    -0.8072 N.ar    
  14 C14           -8.1439    -1.1687    -1.0827 C.ar    
  15 C15           -8.0883    -2.5735    -1.0948 C.ar    
  16 C16           -6.8540    -3.2133    -0.8040 C.ar    
  17 C17           -5.7372    -2.4104    -0.5209 C.ar    
  18 C18           -9.2155    -3.3568    -1.3850 C.ar    
  19 C19           -9.1090    -4.7150    -1.3834 C.ar    
  20 C20           -7.8978    -5.3420    -1.0975 C.ar    
  21 C21           -6.7819    -4.6148    -0.8115 C.ar    
  22 O22           -5.1249     3.9140     0.2751 O.3     
  23 F23            1.1444     2.0734     0.0023 F       
  24 H24            0.9476    -0.5257    -0.0119 H       
  25 H25           -1.1479    -1.8039     0.0049 H       
  26 H26           -1.2407     3.1390     0.0372 H       
  27 H27           -5.8641     1.6076    -0.4618 H       
  28 H28           -9.0740    -0.6653    -1.3012 H       
  29 H29           -4.7799    -2.8560    -0.2945 H       
  30 H30          -10.1616    -2.8861    -1.6079 H       
  31 H31           -9.9781    -5.3160    -1.6071 H       
  32 H32           -7.8428    -6.4206    -1.1031 H       
  33 H33           -5.8493    -5.1130    -0.5913 H       
  34 H34           -5.1104     4.8622     0.4642 H       
@<TRIPOS>BOND
   1    1    2 ar
   2    1   23 1
   3    1    6 ar
   4    2    3 ar
   5    2   24 1
   6    3    4 ar
   7    3   25 1
   8    4    5 ar
   9    4    7 1
  10    5    6 ar
  11    5   10 1
  12    6   26 1
  13    7    8 1
  14    8    9 2
  15    8   12 1
  16    9   10 1
  17    9   27 1
  18   10   11 2
  19   11   22 1
  20   12   13 ar
  21   12   17 ar
  22   13   14 ar
  23   14   15 ar
  24   14   28 1
  25   15   16 ar
  26   15   18 ar
  27   16   17 ar
  28   16   21 ar
  29   17   29 1
  30   18   19 ar
  31   18   30 1
  32   19   20 ar
  33   19   31 1
  34   20   21 ar
  35   20   32 1
  36   21   33 1
  37   22   34 1

#	End of record

