#	Name: ASD01884693
#	Creating user name:	WinNT
#	Creation time:	15. 06. 2019 19:48

#	Modifying user name:	WinNT
#	Modification time:	15. 06. 2019 19:48

#	Program:	/corina/corina34_cracker 3.40 0067  02.08.2006

@<TRIPOS>MOLECULE
ASD01884693
  51   53    0    0    0
SMALL
NO_CHARGES


@<TRIPOS>ATOM
   1 C1            -0.0164     1.3598     0.0095 C.2     
   2 C2             0.0021    -0.0041     0.0020 C.2     
   3 C3             1.2342    -0.6727    -0.0133 C.2     
   4 C4             2.3874     0.0358    -0.0205 C.2     
   5 N5             2.3670     1.3933    -0.0126 N.am    
   6 C6             1.1996     2.0643     0.0017 C.2     
   7 O7             1.1975     3.2849     0.0083 O.2     
   8 C8             1.2747    -2.1791    -0.0213 C.3     
   9 C9             3.6294     2.1366    -0.0197 C.3     
  10 C10            4.0495     2.3996    -1.4429 C.ar    
  11 C11            3.4737     3.4386    -2.1538 C.ar    
  12 C12            3.8603     3.6796    -3.4614 C.ar    
  13 C13            4.8211     2.8820    -4.0556 C.ar    
  14 C14            5.3956     1.8438    -3.3435 C.ar    
  15 C15            5.0138     1.6069    -2.0365 C.ar    
  16 C16            1.1767    -2.6995     1.4141 C.3     
  17 Cl17           5.3062     3.1828    -5.6951 Cl      
  18 F18            2.5349     4.2168    -1.5723 F       
  19 C19            1.2177    -4.2290     1.4060 C.3     
  20 C20            1.1197    -4.7494     2.8414 C.3     
  21 C21            1.1602    -6.2558     2.8335 C.ar    
  22 C22            2.3722    -6.9147     2.9227 C.ar    
  23 C23            2.4127    -8.2969     2.9152 C.ar    
  24 C24            1.2416    -9.0228     2.8185 C.ar    
  25 C25            0.0238    -8.3639     2.7292 C.ar    
  26 C26           -0.0146    -6.9774     2.7426 C.ar    
  27 O27           -1.1299    -9.0759     2.6335 O.3     
  28 C28           -1.0148   -10.5002     2.6305 C.3     
  29 H29           -0.9557     1.8927     0.0169 H       
  30 H30           -0.9222    -0.5627     0.0082 H       
  31 H31            3.3339    -0.4842    -0.0324 H       
  32 H32            0.4372    -2.5620    -0.6046 H       
  33 H33            2.2112    -2.5151    -0.4665 H       
  34 H34            3.4957     3.0849     0.5008 H       
  35 H35            4.3986     1.5511     0.4839 H       
  36 H36            3.4115     4.4897    -4.0170 H       
  37 H37            6.1460     1.2211    -3.8079 H       
  38 H38            5.4628     0.7964    -1.4816 H       
  39 H39            2.0141    -2.3167     1.9974 H       
  40 H40            0.2401    -2.3636     1.8593 H       
  41 H41            0.3803    -4.6118     0.8228 H       
  42 H42            2.1542    -4.5649     0.9609 H       
  43 H43            1.9572    -4.3665     3.4247 H       
  44 H44            0.1832    -4.4134     3.2866 H       
  45 H45            3.2891    -6.3489     2.9981 H       
  46 H46            3.3609    -8.8093     2.9847 H       
  47 H47            1.2738   -10.1023     2.8119 H       
  48 H48           -0.9613    -6.4622     2.6733 H       
  49 H49           -0.5440   -10.8287     3.5571 H       
  50 H50           -2.0068   -10.9447     2.5496 H       
  51 H51           -0.4059   -10.8138     1.7825 H       
@<TRIPOS>BOND
   1    1    2 2
   2    1    6 1
   3    1   29 1
   4    2    3 1
   5    2   30 1
   6    3    4 2
   7    3    8 1
   8    4    5 1
   9    4   31 1
  10    5    6 am
  11    5    9 1
  12    6    7 2
  13    8   16 1
  14    8   32 1
  15    8   33 1
  16    9   10 1
  17    9   34 1
  18    9   35 1
  19   10   11 ar
  20   10   15 ar
  21   11   12 ar
  22   11   18 1
  23   12   13 ar
  24   12   36 1
  25   13   14 ar
  26   13   17 1
  27   14   15 ar
  28   14   37 1
  29   15   38 1
  30   16   19 1
  31   16   39 1
  32   16   40 1
  33   19   20 1
  34   19   41 1
  35   19   42 1
  36   20   21 1
  37   20   43 1
  38   20   44 1
  39   21   22 ar
  40   21   26 ar
  41   22   23 ar
  42   22   45 1
  43   23   24 ar
  44   23   46 1
  45   24   25 ar
  46   24   47 1
  47   25   26 ar
  48   25   27 1
  49   26   48 1
  50   27   28 1
  51   28   49 1
  52   28   50 1
  53   28   51 1

#	End of record

