#	Name: ASD01913006
#	Creating user name:	WinNT
#	Creation time:	15. 06. 2019 20:00

#	Modifying user name:	WinNT
#	Modification time:	15. 06. 2019 20:00

#	Program:	/corina/corina34_cracker 3.40 0067  02.08.2006

@<TRIPOS>MOLECULE
ASD01913006
  43   46    0    0    0
SMALL
NO_CHARGES


@<TRIPOS>ATOM
   1 C1            -0.2978     1.7234    -0.9750 C.2     
   2 C2            -0.3536     0.3154    -1.2300 C.1     
   3 C3            -0.3993    -0.8390    -1.4391 C.1     
   4 C4            -0.4551    -2.2470    -1.6941 C.ar    
   5 C5            -1.6901    -2.8888    -1.8250 C.ar    
   6 C6             0.7253    -2.9855    -1.8192 C.ar    
   7 C7             0.6635    -4.3410    -2.0653 C.ar    
   8 C8            -0.5629    -4.9702    -2.1888 C.ar    
   9 C9            -1.7357    -4.2449    -2.0710 C.ar    
  10 N10            0.7900     2.4236    -0.8354 N.2     
  11 C11            0.6680     3.7190    -0.6013 C.2     
  12 C12           -0.6096     4.1510    -0.5432 C.2     
  13 S13           -1.6901     2.7883    -0.8072 S.3     
  14 C14            1.8603     4.6465    -0.4056 C.3     
  15 C15            1.4149     6.0923    -0.6332 C.3     
  16 N16            0.1685     6.3343     0.1088 N.am    
  17 C17           -1.0305     5.5832    -0.2998 C.3     
  18 C18            0.1251     7.2137     1.1292 C.2     
  19 O19            1.1514     7.7214     1.5383 O.2     
  20 N20           -1.0559     7.5305     1.6960 N.am    
  21 C21           -2.3482     6.8977     1.3944 C.3     
  22 C22           -3.4153     7.5993     2.2609 C.3     
  23 C23           -2.7565     8.9664     2.5841 C.3     
  24 C24           -1.2648     8.5646     2.7258 C.3     
  25 F25           -4.5997     7.7792     1.5383 F       
  26 F26           -3.6546     6.8754     3.4339 F       
  27 H27           -2.6061    -2.3241    -1.7333 H       
  28 H28            1.6831    -2.4957    -1.7238 H       
  29 H29            1.5745    -4.9129    -2.1622 H       
  30 H30           -0.6050    -6.0319    -2.3822 H       
  31 H31           -2.6891    -4.7429    -2.1686 H       
  32 H32            2.2428     4.5387     0.6093 H       
  33 H33            2.6426     4.3897    -1.1199 H       
  34 H34            2.1888     6.7724    -0.2773 H       
  35 H35            1.2438     6.2578    -1.6969 H       
  36 H36           -1.4399     6.0093    -1.2158 H       
  37 H37           -1.7780     5.6197     0.4926 H       
  38 H38           -2.5859     7.0252     0.3383 H       
  39 H39           -2.3084     5.8370     1.6421 H       
  40 H40           -2.8985     9.6718     1.7655 H       
  41 H41           -3.1402     9.3735     3.5196 H       
  42 H42           -1.0733     8.1614     3.7202 H       
  43 H43           -0.6209     9.4227     2.5330 H       
@<TRIPOS>BOND
   1    1    2 1
   2    1   10 2
   3    1   13 1
   4    2    3 3
   5    3    4 1
   6    4    5 ar
   7    4    6 ar
   8    5    9 ar
   9    5   27 1
  10    6    7 ar
  11    6   28 1
  12    7    8 ar
  13    7   29 1
  14    8    9 ar
  15    8   30 1
  16    9   31 1
  17   10   11 1
  18   11   12 2
  19   11   14 1
  20   12   13 1
  21   12   17 1
  22   14   15 1
  23   14   32 1
  24   14   33 1
  25   15   16 1
  26   15   34 1
  27   15   35 1
  28   16   17 1
  29   16   18 am
  30   17   36 1
  31   17   37 1
  32   18   19 2
  33   18   20 am
  34   20   21 1
  35   20   24 1
  36   21   22 1
  37   21   38 1
  38   21   39 1
  39   22   23 1
  40   22   25 1
  41   22   26 1
  42   23   24 1
  43   23   40 1
  44   23   41 1
  45   24   42 1
  46   24   43 1

#	End of record

