#	Name: ASD02038333
#	Creating user name:	WinNT
#	Creation time:	15. 06. 2019 20:16

#	Modifying user name:	WinNT
#	Modification time:	15. 06. 2019 20:16

#	Program:	/corina/corina34_cracker 3.40 0067  02.08.2006

@<TRIPOS>MOLECULE
ASD02038333
  65   68    0    0    0
SMALL
NO_CHARGES


@<TRIPOS>ATOM
   1 C1             0.2590     1.6473    -0.2171 C.3     
   2 C2             0.1718     0.1223    -0.1206 C.3     
   3 N3             0.8289    -0.4782    -1.2899 N.3     
   4 C4             0.7003    -1.9415    -1.2723 C.3     
   5 C5             1.6729    -2.5267    -0.2464 C.3     
   6 C6             1.6485    -4.0540    -0.3338 C.3     
   7 O7             2.6395    -4.5971     0.5408 O.3     
   8 C8             2.7500    -5.9515     0.5830 C.ar    
   9 C9             3.6881    -6.5386     1.4078 C.ar    
  10 C10            1.9120    -6.7401    -0.2021 C.ar    
  11 C11            2.0090    -8.1135    -0.1715 C.ar    
  12 C12            2.9512    -8.7254     0.6488 C.ar    
  13 C13            3.7967    -7.9327     1.4472 C.ar    
  14 C14            2.2401    -0.0745    -1.3625 C.3     
  15 C15            2.3273     1.4505    -1.4590 C.3     
  16 N16            1.6702     2.0511    -0.2897 N.3     
  17 C17            1.7925     3.4424    -0.3065 C.ar    
  18 C18            1.2373     4.2023     0.7152 C.ar    
  19 C19            1.3605     5.5777     0.6958 C.ar    
  20 C20            2.0357     6.1985    -0.3391 C.ar    
  21 C21            2.5896     5.4449    -1.3578 C.ar    
  22 C22            2.4746     4.0688    -1.3418 C.ar    
  23 N23            3.0645   -10.1002     0.6932 N.am    
  24 C24            3.9742   -10.6941     1.4851 C.2     
  25 C25            4.8482    -9.9442     2.3008 C.2     
  26 C26            4.7842    -8.5898     2.3056 C.2     
  27 O27            4.0457   -11.9109     1.4991 O.2     
  28 O28            1.2832    -2.1184     1.0664 O.3     
  29 C29            2.1677     7.6996    -0.3572 C.3     
  30 C30            3.4442     8.1082     0.3807 C.3     
  31 C31            3.6438     9.6199     0.2557 C.3     
  32 C32            3.3223     7.7303     1.8583 C.3     
  33 H33           -0.2625     1.9855    -1.1125 H       
  34 H34           -0.2023     2.0944     0.6635 H       
  35 H35            0.6699    -0.2136     0.7889 H       
  36 H36           -0.8747    -0.1812    -0.0958 H       
  37 H37           -0.3200    -2.2133    -1.0018 H       
  38 H38            0.9322    -2.3385    -2.2605 H       
  39 H39            2.6805    -2.1669    -0.4546 H       
  40 H40            0.6646    -4.4190    -0.0393 H       
  41 H41            1.8590    -4.3627    -1.3578 H       
  42 H42            4.3344    -5.9256     2.0186 H       
  43 H43            1.1788    -6.2699    -0.8406 H       
  44 H44            1.3537    -8.7152    -0.7838 H       
  45 H45            2.7616    -0.4126    -0.4671 H       
  46 H46            2.7014    -0.5215    -2.2431 H       
  47 H47            3.3739     1.7541    -1.4838 H       
  48 H48            1.8292     1.7864    -2.3685 H       
  49 H49            0.7096     3.7182     1.5236 H       
  50 H50            0.9288     6.1692     1.4897 H       
  51 H51            3.1162     5.9329    -2.1646 H       
  52 H52            2.9077     3.4808    -2.1375 H       
  53 H53            2.4789   -10.6459     0.1452 H       
  54 H54            5.5680   -10.4511     2.9264 H       
  55 H55            5.4494    -8.0082     2.9266 H       
  56 H56            0.3949    -2.4045     1.3198 H       
  57 H57            2.2172     8.0476    -1.3889 H       
  58 H58            1.3042     8.1462     0.1359 H       
  59 H59            4.2982     7.5915    -0.0572 H       
  60 H60            2.7898    10.1366     0.6936 H       
  61 H61            4.5532     9.9111     0.7814 H       
  62 H62            3.7306     9.8891    -0.7970 H       
  63 H63            4.2317     8.0214     2.3840 H       
  64 H64            2.4683     8.2470     2.2962 H       
  65 H65            3.1801     6.6533     1.9474 H       
@<TRIPOS>BOND
   1    1    2 1
   2    1   16 1
   3    1   33 1
   4    1   34 1
   5    2    3 1
   6    2   35 1
   7    2   36 1
   8    3    4 1
   9    3   14 1
  10    4    5 1
  11    4   37 1
  12    4   38 1
  13    5    6 1
  14    5   28 1
  15    5   39 1
  16    6    7 1
  17    6   40 1
  18    6   41 1
  19    7    8 1
  20    8    9 ar
  21    8   10 ar
  22    9   13 ar
  23    9   42 1
  24   10   11 ar
  25   10   43 1
  26   11   12 ar
  27   11   44 1
  28   12   13 ar
  29   12   23 1
  30   13   26 1
  31   14   15 1
  32   14   45 1
  33   14   46 1
  34   15   16 1
  35   15   47 1
  36   15   48 1
  37   16   17 1
  38   17   18 ar
  39   17   22 ar
  40   18   19 ar
  41   18   49 1
  42   19   20 ar
  43   19   50 1
  44   20   21 ar
  45   20   29 1
  46   21   22 ar
  47   21   51 1
  48   22   52 1
  49   23   24 am
  50   23   53 1
  51   24   25 1
  52   24   27 2
  53   25   26 2
  54   25   54 1
  55   26   55 1
  56   28   56 1
  57   29   30 1
  58   29   57 1
  59   29   58 1
  60   30   31 1
  61   30   32 1
  62   30   59 1
  63   31   60 1
  64   31   61 1
  65   31   62 1
  66   32   63 1
  67   32   64 1
  68   32   65 1

#	End of record

