#	Name: ASD00310079
#	Creating user name:	WinNT
#	Creation time:	15. 06. 2019 18:33

#	Modifying user name:	WinNT
#	Modification time:	15. 06. 2019 18:33

#	Program:	/corina/corina34_cracker 3.40 0067  02.08.2006

@<TRIPOS>MOLECULE
ASD00310079
  33   35    0    0    0
SMALL
NO_CHARGES


@<TRIPOS>ATOM
   1 N1            -0.0163     1.3500     0.0095 N.pl3   
   2 C2             0.0021    -0.0041     0.0020 C.2     
   3 C3             1.2921    -0.4483    -0.0127 C.2     
   4 C4             2.1475     0.7539    -0.0144 C.ar    
   5 C5             3.5230     0.9583    -0.0268 C.ar    
   6 C6             4.0239     2.2538    -0.0251 C.ar    
   7 C7             3.1465     3.3436    -0.0104 C.ar    
   8 C8             1.7850     3.1436     0.0024 C.ar    
   9 C9             1.2694     1.8502    -0.0001 C.ar    
  10 C10            1.7402    -1.8454    -0.0245 C.2     
  11 O11            2.9286    -2.1027    -0.0367 O.2     
  12 O12            0.8342    -2.8441    -0.0217 O.3     
  13 C13            5.4899     2.4821    -0.0383 C.ar    
  14 C14            6.0518     3.3597    -0.9625 C.ar    
  15 C15            7.4209     3.5685    -0.9698 C.ar    
  16 C16            8.2296     2.9037    -0.0579 C.ar    
  17 C17            7.6725     2.0327     0.8593 C.ar    
  18 C18            6.3079     1.8234     0.8777 C.ar    
  19 O19            7.9729     4.4241    -1.8700 O.3     
  20 C20            9.3912     4.5914    -1.8206 C.3     
  21 Cl21           3.7801     4.9599    -0.0077 Cl      
  22 H22           -0.8206     1.8922     0.0164 H       
  23 H23           -0.8729    -0.6372     0.0073 H       
  24 H24            4.1975     0.1150    -0.0374 H       
  25 H25            1.1155     3.9910     0.0141 H       
  26 H26            1.1773    -3.7482    -0.0298 H       
  27 H27            5.4215     3.8757    -1.6717 H       
  28 H28            9.2971     3.0672    -0.0656 H       
  29 H29            8.3058     1.5179     1.5666 H       
  30 H30            5.8751     1.1457     1.5986 H       
  31 H31            9.8766     3.6310    -1.9936 H       
  32 H32            9.7006     5.2987    -2.5901 H       
  33 H33            9.6782     4.9723    -0.8405 H       
@<TRIPOS>BOND
   1    1    2 1
   2    1    9 1
   3    1   22 1
   4    2    3 2
   5    2   23 1
   6    3    4 1
   7    3   10 1
   8    4    5 ar
   9    4    9 ar
  10    5    6 ar
  11    5   24 1
  12    6    7 ar
  13    6   13 1
  14    7    8 ar
  15    7   21 1
  16    8    9 ar
  17    8   25 1
  18   10   11 2
  19   10   12 1
  20   12   26 1
  21   13   14 ar
  22   13   18 ar
  23   14   15 ar
  24   14   27 1
  25   15   16 ar
  26   15   19 1
  27   16   17 ar
  28   16   28 1
  29   17   18 ar
  30   17   29 1
  31   18   30 1
  32   19   20 1
  33   20   31 1
  34   20   32 1
  35   20   33 1

#	End of record

