#	Name: ASD05060023
#	Creating user name:	WinNT
#	Creation time:	15. 06. 2019 20:56

#	Modifying user name:	WinNT
#	Modification time:	15. 06. 2019 20:56

#	Program:	/corina/corina34_cracker 3.40 0067  02.08.2006

@<TRIPOS>MOLECULE
ASD05060023
 126  126    0    0    0
SMALL
NO_CHARGES


@<TRIPOS>ATOM
   1 N1            -1.1128     3.6192    -2.4315 N.3     
   2 N2            -1.2581     2.3675    -3.1568 N.3     
   3 C3            -2.6182     2.2250    -3.6934 C.3     
   4 C4            -3.5182     1.6458    -2.6324 C.2     
   5 N5            -4.7616     2.1840    -2.4587 N.am    
   6 C6            -5.5820     1.5582    -1.3970 C.3     
   7 C7            -6.6330     2.5445    -0.9566 C.2     
   8 N8            -7.0611     2.5226     0.3353 N.am    
   9 C9            -8.0904     3.5135     0.7071 C.3     
  10 C10           -7.6457     4.2337     1.9538 C.2     
  11 N11           -7.9028     5.5702     2.0684 N.am    
  12 C12           -7.4379     6.2016     3.3242 C.3     
  13 C13           -6.5798     7.3908     2.9769 C.2     
  14 N14           -5.5669     7.7428     3.8155 N.am    
  15 C15           -4.7603     8.9153     3.4223 C.3     
  16 C16           -3.3025     8.5342     3.4504 C.2     
  17 N17           -2.4176     9.2641     2.7088 N.am    
  18 C18           -1.0064     8.8232     2.7880 C.3     
  19 C19           -0.4885     8.6152     1.3881 C.2     
  20 C20            0.3340     7.4185     1.0700 C.2     
  21 C21            0.8492     7.2089    -0.3307 C.3     
  22 N22            0.7730     5.7708    -0.6563 N.am    
  23 C23            0.3999     5.4526    -1.9260 C.2     
  24 C24            0.3013     4.0006    -2.3179 C.3     
  25 O25            0.1498     6.3250    -2.7305 O.2     
  26 O26            0.5897     6.6143     1.9342 O.2     
  27 O27           -0.7420     9.4206     0.5244 O.2     
  28 O28           -2.9219     7.5970     4.1195 O.2     
  29 O29           -6.7884     8.0250     1.9644 O.2     
  30 O30           -7.0696     3.6376     2.8391 O.2     
  31 O31           -7.0913     3.3464    -1.7426 O.2     
  32 O32           -3.1454     0.7183    -1.9456 O.2     
  33 C33           -0.1718     9.8962     3.4902 C.3     
  34 C34           -0.6337    10.0322     4.9425 C.3     
  35 S35            0.3559    11.3043     5.7751 S.3     
  36 C36           -0.3283    11.3189     7.4551 C.3     
  37 C37           -3.1461     3.5974    -4.1164 C.3     
  38 C38           -2.2351     4.1833    -5.1970 C.3     
  39 C39           -2.3116     3.3151    -6.4544 C.3     
  40 C40           -2.6894     5.6056    -5.5308 C.3     
  41 C41            0.9784     3.1374    -1.2515 C.3     
  42 O42            0.9519     1.7681    -1.6596 O.3     
  43 C43           -8.2671     4.5206    -0.4310 C.3     
  44 C44           -6.9045     5.1011    -0.8146 C.3     
  45 C45           -6.5677     6.2688     0.1149 C.3     
  46 C46           -8.8815     3.8177    -1.6432 C.3     
  47 C47           -6.2569     0.2989    -1.9445 C.3     
  48 C48           -5.1899    -0.7403    -2.2947 C.3     
  49 C49           -5.8647    -1.9995    -2.8422 C.3     
  50 C50           -4.7978    -3.0387    -3.1923 C.3     
  51 N51           -5.4457    -4.2477    -3.7181 N.3     
  52 C52           -9.4452     5.4601     4.5772 C.2     
  53 C53           -8.6445     6.6614     4.1450 C.3     
  54 O54           -9.0875     4.3501     4.2612 O.2     
  55 O55          -10.5557     5.6232     5.3133 O.3     
  56 C56           -4.7933     8.2650     1.0296 C.2     
  57 C57           -5.1484     9.3540     2.0089 C.3     
  58 O58           -4.4280     7.1860     1.4323 O.2     
  59 O59           -4.8828     8.4938    -0.2900 O.3     
  60 C60           -1.4223     7.4825    -1.2870 C.2     
  61 C61           -0.0088     8.0041    -1.3169 C.3     
  62 O62           -1.6997     6.5280    -0.6000 O.2     
  63 O63           -2.3733     8.0782    -2.0235 O.3     
  64 H64           -1.6516     4.3534    -2.8658 H       
  65 H65           -0.5700     2.2931    -3.8910 H       
  66 H66           -2.6003     1.5605    -4.5572 H       
  67 H67           -5.0850     2.9251    -2.9945 H       
  68 H68           -4.9473     1.2973    -0.5501 H       
  69 H69           -6.7082     1.8882     0.9787 H       
  70 H70           -9.0355     3.0047     0.8969 H       
  71 H71           -8.3586     6.0715     1.3742 H       
  72 H72           -6.8530     5.4841     3.8996 H       
  73 H73           -5.3843     7.2484     4.6297 H       
  74 H74           -4.9378     9.7320     4.1220 H       
  75 H75           -2.6949    10.0194     2.1670 H       
  76 H76           -0.9460     7.8873     3.3434 H       
  77 H77            1.8849     7.5431    -0.3928 H       
  78 H78            0.9786     5.0877     0.0009 H       
  79 H79            0.7968     3.8486    -3.2768 H       
  80 H80            0.8799     9.6103     3.4687 H       
  81 H81           -0.2998    10.8495     2.9775 H       
  82 H82           -1.6853    10.3180     4.9641 H       
  83 H83           -0.5057     9.0789     5.4553 H       
  84 H84           -1.3876    11.5725     7.4137 H       
  85 H85           -0.2080    10.3334     7.9050 H       
  86 H86            0.1994    12.0595     8.0559 H       
  87 H87           -4.1567     3.4922    -4.5110 H       
  88 H88           -3.1605     4.2629    -3.2532 H       
  89 H89           -1.2078     4.2060    -4.8331 H       
  90 H90           -1.6626     3.7325    -7.2242 H       
  91 H91           -1.9880     2.3018    -6.2165 H       
  92 H92           -3.3389     3.2924    -6.8183 H       
  93 H93           -2.6348     6.2242    -4.6350 H       
  94 H94           -2.0403     6.0231    -6.3007 H       
  95 H95           -3.7166     5.5830    -5.8947 H       
  96 H96            2.0122     3.4592    -1.1261 H       
  97 H97            0.4471     3.2450    -0.3058 H       
  98 H98            1.3650     1.1619    -1.0296 H       
  99 H99           -8.9262     5.3253    -0.1051 H       
 100 H100          -6.1409     4.3291    -0.7195 H       
 101 H101          -6.9372     5.4548    -1.8451 H       
 102 H102          -5.6806     6.7832    -0.2546 H       
 103 H103          -7.4061     6.9648     0.1425 H       
 104 H104          -6.3764     5.8904     1.1191 H       
 105 H105          -9.9552     3.7057    -1.4927 H       
 106 H106          -8.7002     4.4123    -2.5385 H       
 107 H107          -8.4267     2.8342    -1.7620 H       
 108 H108          -6.9290    -0.1103    -1.1903 H       
 109 H109          -6.8256     0.5514    -2.8395 H       
 110 H110          -4.5178    -0.3310    -3.0489 H       
 111 H111          -4.6212    -0.9928    -1.3997 H       
 112 H112          -6.5369    -2.4088    -2.0880 H       
 113 H113          -6.4335    -1.7470    -3.7371 H       
 114 H114          -4.1257    -2.6295    -3.9466 H       
 115 H115          -4.2290    -3.2912    -2.2974 H       
 116 H116          -4.7615    -4.9499    -3.9569 H       
 117 H117          -6.1217    -4.6099    -3.0624 H       
 118 H118          -8.2997     7.2041     5.0251 H       
 119 H119          -9.2698     7.3151     3.5369 H       
 120 H120         -11.0360     4.8230     5.5666 H       
 121 H121          -6.2211     9.5430     1.9689 H       
 122 H122          -4.6090    10.2652     1.7504 H       
 123 H123          -4.6318     7.7693    -0.8792 H       
 124 H124          -0.0041     9.0572    -1.0356 H       
 125 H125           0.3976     7.8947    -2.3224 H       
 126 H126          -3.2651     7.7080    -1.9717 H       
@<TRIPOS>BOND
   1    1    2 1
   2    1   24 1
   3    1   64 1
   4    2    3 1
   5    2   65 1
   6    3    4 1
   7    3   37 1
   8    3   66 1
   9    4    5 am
  10    4   32 2
  11    5    6 1
  12    5   67 1
  13    6    7 1
  14    6   47 1
  15    6   68 1
  16    7    8 am
  17    7   31 2
  18    8    9 1
  19    8   69 1
  20    9   10 1
  21    9   43 1
  22    9   70 1
  23   10   11 am
  24   10   30 2
  25   11   12 1
  26   11   71 1
  27   12   13 1
  28   12   53 1
  29   12   72 1
  30   13   14 am
  31   13   29 2
  32   14   15 1
  33   14   73 1
  34   15   16 1
  35   15   57 1
  36   15   74 1
  37   16   17 am
  38   16   28 2
  39   17   18 1
  40   17   75 1
  41   18   19 1
  42   18   33 1
  43   18   76 1
  44   19   20 1
  45   19   27 2
  46   20   21 1
  47   20   26 2
  48   21   22 1
  49   21   61 1
  50   21   77 1
  51   22   23 am
  52   22   78 1
  53   23   24 1
  54   23   25 2
  55   24   41 1
  56   24   79 1
  57   33   34 1
  58   33   80 1
  59   33   81 1
  60   34   35 1
  61   34   82 1
  62   34   83 1
  63   35   36 1
  64   36   84 1
  65   36   85 1
  66   36   86 1
  67   37   38 1
  68   37   87 1
  69   37   88 1
  70   38   39 1
  71   38   40 1
  72   38   89 1
  73   39   90 1
  74   39   91 1
  75   39   92 1
  76   40   93 1
  77   40   94 1
  78   40   95 1
  79   41   42 1
  80   41   96 1
  81   41   97 1
  82   42   98 1
  83   43   44 1
  84   43   46 1
  85   43   99 1
  86   44   45 1
  87   44  100 1
  88   44  101 1
  89   45  102 1
  90   45  103 1
  91   45  104 1
  92   46  105 1
  93   46  106 1
  94   46  107 1
  95   47   48 1
  96   47  108 1
  97   47  109 1
  98   48   49 1
  99   48  110 1
 100   48  111 1
 101   49   50 1
 102   49  112 1
 103   49  113 1
 104   50   51 1
 105   50  114 1
 106   50  115 1
 107   51  116 1
 108   51  117 1
 109   52   53 1
 110   52   54 2
 111   52   55 1
 112   53  118 1
 113   53  119 1
 114   55  120 1
 115   56   57 1
 116   56   58 2
 117   56   59 1
 118   57  121 1
 119   57  122 1
 120   59  123 1
 121   60   61 1
 122   60   62 2
 123   60   63 1
 124   61  124 1
 125   61  125 1
 126   63  126 1

#	End of record

