#	Name: ASD01814185
#	Creating user name:	WinNT
#	Creation time:	15. 06. 2019 19:31

#	Modifying user name:	WinNT
#	Modification time:	15. 06. 2019 19:31

#	Program:	/corina/corina34_cracker 3.40 0067  02.08.2006

@<TRIPOS>MOLECULE
ASD01814185
  43   46    0    0    0
SMALL
NO_CHARGES


@<TRIPOS>ATOM
   1 C1            -0.0167     1.3820     0.0096 C.ar    
   2 C2             0.0021    -0.0041     0.0020 C.ar    
   3 C3             1.1959    -0.6932    -0.0130 C.ar    
   4 C4             2.4016     0.0019    -0.0208 C.ar    
   5 C5             2.3831     1.4075    -0.0131 C.ar    
   6 C6             1.1665     2.0939     0.0022 C.ar    
   7 N7             3.6010    -0.6771    -0.0354 N.pl3   
   8 C8             4.7870    -0.0549    -0.0424 C.2     
   9 C9             4.8957     1.3208    -0.0361 C.2     
  10 C10            3.6667     2.1313    -0.0214 C.2     
  11 C11            6.2161     1.9660    -0.0437 C.2     
  12 O12            6.3092     3.3109    -0.0374 O.3     
  13 O13            7.2243     1.2870    -0.0558 O.2     
  14 O14            3.7090     3.3491    -0.0157 O.2     
  15 C15            3.5775    -2.1419    -0.0430 C.3     
  16 C16            3.5562    -2.6442    -1.4880 C.3     
  17 C17            3.4057    -4.1710    -1.5053 C.3     
  18 C18            3.4573    -4.6557    -2.9541 C.3     
  19 C19            2.4834    -3.8825    -3.8036 C.ar    
  20 C20            2.0018    -2.6443    -3.4086 C.ar    
  21 N21            2.4036    -2.0716    -2.1969 N.pl3   
  22 C22            2.0639    -4.4270    -5.0061 C.ar    
  23 C23            1.1736    -3.7410    -5.8090 C.ar    
  24 C24            0.6942    -2.5045    -5.4164 C.ar    
  25 C25            1.1060    -1.9552    -4.2191 C.ar    
  26 F26            1.1476     3.4448     0.0096 F       
  27 H27           -0.9604     1.9071     0.0169 H       
  28 H28           -0.9295    -0.5505     0.0083 H       
  29 H29            1.1956    -1.7731    -0.0185 H       
  30 H30            5.6884    -0.6497    -0.0531 H       
  31 H31            7.1990     3.6894    -0.0429 H       
  32 H32            4.4662    -2.5222     0.4608 H       
  33 H33            2.6865    -2.4937     0.4772 H       
  34 H34            4.4796    -2.3584    -1.9917 H       
  35 H35            4.2193    -4.6246    -0.9393 H       
  36 H36            2.4500    -4.4489    -1.0611 H       
  37 H37            4.4654    -4.5168    -3.3448 H       
  38 H38            3.2036    -5.7152    -2.9888 H       
  39 H39            1.9288    -1.3091    -1.8306 H       
  40 H40            2.4350    -5.3922    -5.3175 H       
  41 H41            0.8508    -4.1714    -6.7454 H       
  42 H42           -0.0011    -1.9693    -6.0461 H       
  43 H43            0.7323    -0.9898    -3.9113 H       
@<TRIPOS>BOND
   1    1    2 ar
   2    1    6 ar
   3    1   27 1
   4    2    3 ar
   5    2   28 1
   6    3    4 ar
   7    3   29 1
   8    4    5 ar
   9    4    7 1
  10    5    6 ar
  11    5   10 1
  12    6   26 1
  13    7    8 1
  14    7   15 1
  15    8    9 2
  16    8   30 1
  17    9   10 1
  18    9   11 1
  19   10   14 2
  20   11   12 1
  21   11   13 2
  22   12   31 1
  23   15   16 1
  24   15   32 1
  25   15   33 1
  26   16   17 1
  27   16   21 1
  28   16   34 1
  29   17   18 1
  30   17   35 1
  31   17   36 1
  32   18   19 1
  33   18   37 1
  34   18   38 1
  35   19   20 ar
  36   19   22 ar
  37   20   21 1
  38   20   25 ar
  39   21   39 1
  40   22   23 ar
  41   22   40 1
  42   23   24 ar
  43   23   41 1
  44   24   25 ar
  45   24   42 1
  46   25   43 1

#	End of record

