#	Name: ASD01150955
#	Creating user name:	WinNT
#	Creation time:	15. 06. 2019 19:05

#	Modifying user name:	WinNT
#	Modification time:	15. 06. 2019 19:05

#	Program:	/corina/corina34_cracker 3.40 0067  02.08.2006

@<TRIPOS>MOLECULE
ASD01150955
  50   52    0    0    0
SMALL
NO_CHARGES


@<TRIPOS>ATOM
   1 N1            -0.0168     1.3855     0.0097 N.am    
   2 C2             0.0021    -0.0041     0.0020 C.2     
   3 N3             1.0916    -0.7760    -0.0121 N.2     
   4 C4             0.7450    -2.0470    -0.0158 C.2     
   5 N5            -0.6122    -2.1434    -0.0039 N.pl3   
   6 C6            -1.1096    -0.8380     0.0137 C.2     
   7 C7            -2.4630    -0.4466     0.0311 C.2     
   8 O8            -3.4367    -1.3824     0.0317 O.3     
   9 O9            -2.7548     0.7358     0.0454 O.2     
  10 C10           -4.7866    -0.9141     0.0498 C.3     
  11 S11            1.8635    -3.4084    -0.0338 S.3     
  12 C12            3.4403    -2.5197    -0.0431 C.3     
  13 C13           -1.3656    -3.3243    -0.0034 C.ar    
  14 C14           -1.3021    -4.1896     1.0808 C.ar    
  15 C15           -2.0461    -5.3532     1.0783 C.ar    
  16 C16           -2.8536    -5.6569    -0.0024 C.ar    
  17 C17           -2.9186    -4.7974    -1.0838 C.ar    
  18 C18           -2.1818    -3.6293    -1.0846 C.ar    
  19 C19            1.1411     2.0752     0.0023 C.2     
  20 O20            2.2020     1.4818    -0.0110 O.2     
  21 C21            1.1211     3.5524     0.0104 C.ar    
  22 C22           -5.0445    -0.0535    -1.1887 C.3     
  23 C23           -5.7051    -2.0644     0.0478 C.1     
  24 C24           -5.0195    -0.0777     1.3096 C.3     
  25 C25            2.3191     4.2697     0.0028 C.ar    
  26 C26            2.2939     5.6484     0.0105 C.ar    
  27 C27            1.0835     6.3217     0.0258 C.ar    
  28 C28           -0.1082     5.6157     0.0333 C.ar    
  29 C29           -0.0960     4.2369     0.0200 C.ar    
  30 Cl30           1.0600     8.0575     0.0359 Cl      
  31 N31           -6.4139    -2.9522     0.0463 N.1     
  32 H32           -0.8633     1.8590     0.0162 H       
  33 H33            3.4964    -1.8885    -0.9300 H       
  34 H34            3.5126    -1.8988     0.8499 H       
  35 H35            4.2613    -3.2365    -0.0547 H       
  36 H36           -0.6713    -3.9531     1.9249 H       
  37 H37           -1.9969    -6.0267     1.9210 H       
  38 H38           -3.4345    -6.5674    -0.0021 H       
  39 H39           -3.5497    -5.0377    -1.9267 H       
  40 H40           -2.2332    -2.9582    -1.9293 H       
  41 H41           -4.8786    -0.6494    -2.0862 H       
  42 H42           -6.0742     0.3037    -1.1749 H       
  43 H43           -4.3644     0.7983    -1.1872 H       
  44 H44           -4.3394     0.7741     1.3110 H       
  45 H45           -6.0492     0.2795     1.3233 H       
  46 H46           -4.8358    -0.6908     2.1919 H       
  47 H47            3.2634     3.7458    -0.0087 H       
  48 H48            3.2198     6.2043     0.0050 H       
  49 H49           -1.0488     6.1462     0.0452 H       
  50 H50           -1.0258     3.6875     0.0256 H       
@<TRIPOS>BOND
   1    1    2 1
   2    1   19 am
   3    1   32 1
   4    2    3 1
   5    2    6 2
   6    3    4 2
   7    4    5 1
   8    4   11 1
   9    5    6 1
  10    5   13 1
  11    6    7 1
  12    7    8 1
  13    7    9 2
  14    8   10 1
  15   10   22 1
  16   10   23 1
  17   10   24 1
  18   11   12 1
  19   12   33 1
  20   12   34 1
  21   12   35 1
  22   13   14 ar
  23   13   18 ar
  24   14   15 ar
  25   14   36 1
  26   15   16 ar
  27   15   37 1
  28   16   17 ar
  29   16   38 1
  30   17   18 ar
  31   17   39 1
  32   18   40 1
  33   19   20 2
  34   19   21 1
  35   21   25 ar
  36   21   29 ar
  37   22   41 1
  38   22   42 1
  39   22   43 1
  40   23   31 3
  41   24   44 1
  42   24   45 1
  43   24   46 1
  44   25   26 ar
  45   25   47 1
  46   26   27 ar
  47   26   48 1
  48   27   28 ar
  49   27   30 1
  50   28   29 ar
  51   28   49 1
  52   29   50 1

#	End of record

