#	Name: ASD05720028
#	Creating user name:	WinNT
#	Creation time:	15. 06. 2019 21:01

#	Modifying user name:	WinNT
#	Modification time:	15. 06. 2019 21:01

#	Program:	/corina/corina34_cracker 3.40 0067  02.08.2006

@<TRIPOS>MOLECULE
ASD05720028
  39   42    0    0    0
SMALL
NO_CHARGES


@<TRIPOS>ATOM
   1 O1            -0.0511     1.2700     0.1634 O.3     
   2 C2             0.0465    -0.0510    -0.0227 C.2     
   3 N3             1.3076    -0.4920    -0.1269 N.am    
   4 C4             2.2238     0.6518    -0.0000 C.3     
   5 C5             1.2827     1.8555     0.1987 C.3     
   6 O6            -0.9199    -0.7842    -0.0904 O.2     
   7 C7             3.0514     0.8215    -1.2757 C.3     
   8 C8             2.1155     1.0515    -2.4640 C.3     
   9 C9             2.9431     1.2212    -3.7396 C.3     
  10 C10            3.8767     2.4235    -3.5856 C.3     
  11 C11            4.8126     2.1936    -2.3973 C.3     
  12 C12            3.9850     2.0238    -1.1217 C.3     
  13 C13            3.3408    -3.3816    -0.7095 C.2     
  14 N14            2.9567    -2.1114    -0.5199 N.2     
  15 C15            1.6878    -1.8139    -0.3222 C.2     
  16 C16            0.7154    -2.8356    -0.3079 C.2     
  17 C17            1.0974    -4.1182    -0.4986 C.2     
  18 N18            2.4203    -4.3980    -0.7015 N.pl3   
  19 N19            3.1092    -5.5961    -0.9228 N.2     
  20 C20            4.3887    -5.3311    -1.0601 C.2     
  21 C21            4.5812    -3.9621    -0.9404 C.2     
  22 Br22           6.2339    -3.0518    -1.0659 Br      
  23 H23            2.8742     0.5272     0.8657 H       
  24 H24            1.4058     2.5747    -0.6110 H       
  25 H25            1.4666     2.3292     1.1631 H       
  26 H26            3.6426    -0.0779    -1.4476 H       
  27 H27            1.4504     0.1949    -2.5737 H       
  28 H28            1.5242     1.9509    -2.2921 H       
  29 H29            3.5343     0.3218    -3.9115 H       
  30 H30            2.2763     1.3850    -4.5862 H       
  31 H31            4.4663     2.5445    -4.4944 H       
  32 H32            3.2854     3.3230    -3.4137 H       
  33 H33            5.4038     1.2941    -2.5692 H       
  34 H34            5.4777     3.0501    -2.2876 H       
  35 H35            3.3938     2.9233    -0.9498 H       
  36 H36            4.6518     1.8600    -0.2751 H       
  37 H37           -0.3250    -2.5953    -0.1458 H       
  38 H38            0.3661    -4.9129    -0.4904 H       
  39 H39            5.1645    -6.0603    -1.2412 H       
@<TRIPOS>BOND
   1    1    2 1
   2    1    5 1
   3    2    3 am
   4    2    6 2
   5    3    4 1
   6    3   15 1
   7    4    5 1
   8    4    7 1
   9    4   23 1
  10    5   24 1
  11    5   25 1
  12    7    8 1
  13    7   12 1
  14    7   26 1
  15    8    9 1
  16    8   27 1
  17    8   28 1
  18    9   10 1
  19    9   29 1
  20    9   30 1
  21   10   11 1
  22   10   31 1
  23   10   32 1
  24   11   12 1
  25   11   33 1
  26   11   34 1
  27   12   35 1
  28   12   36 1
  29   13   14 1
  30   13   18 1
  31   13   21 2
  32   14   15 2
  33   15   16 1
  34   16   17 2
  35   16   37 1
  36   17   18 1
  37   17   38 1
  38   18   19 1
  39   19   20 2
  40   20   21 1
  41   20   39 1
  42   21   22 1

#	End of record

