#	Name: ASD01885880
#	Creating user name:	WinNT
#	Creation time:	15. 06. 2019 19:50

#	Modifying user name:	WinNT
#	Modification time:	15. 06. 2019 19:50

#	Program:	/corina/corina34_cracker 3.40 0067  02.08.2006

@<TRIPOS>MOLECULE
ASD01885880
  50   53    0    0    0
SMALL
NO_CHARGES


@<TRIPOS>ATOM
   1 C1            -0.0170     1.4059     0.0098 C.ar    
   2 C2             1.2137     2.1096     0.0018 C.ar    
   3 C3             1.1962     3.5275     0.0097 C.ar    
   4 C4            -0.0384     4.1620     0.0249 C.ar    
   5 C5            -1.2080     3.3939     0.0319 C.ar    
   6 N6            -1.1702     2.0746     0.0299 N.ar    
   7 C7             0.0021    -0.0041     0.0020 C.ar    
   8 C8             1.1952    -0.6629    -0.0130 C.ar    
   9 C9             2.4002     0.0349    -0.0208 C.ar    
  10 C10            2.4197     1.3978    -0.0132 C.ar    
  11 C11            1.2104    -2.1698    -0.0207 C.3     
  12 C12            2.4554     4.3069     0.0024 C.2     
  13 C13            1.0778    -2.6663    -1.4374 C.ar    
  14 C14           -2.5225     4.0793     0.0486 C.2     
  15 N15           -3.6596     3.3558     0.0556 N.am    
  16 O16           -2.5747     5.2932     0.0561 O.2     
  17 C17            3.5574     4.1194     0.8620 C.2     
  18 N18            4.4714     4.9972     0.5460 N.2     
  19 N19            3.9959     5.7736    -0.5175 N.pl3   
  20 C20            2.7645     5.3359    -0.8427 C.2     
  21 C21            4.7165     6.8704    -1.1686 C.3     
  22 F22           -1.1567    -0.6986     0.0098 F       
  23 C23            2.1991    -2.8868    -2.2178 C.ar    
  24 C24            2.0372    -3.3447    -3.5193 C.ar    
  25 N25            0.8295    -3.5680    -4.0098 N.ar    
  26 C26           -0.2582    -3.3669    -3.2900 C.ar    
  27 C27           -0.1717    -2.9182    -1.9874 C.ar    
  28 O28            3.1285    -3.5644    -4.2949 O.3     
  29 C29            2.8958    -4.0349    -5.6240 C.3     
  30 C30           -1.6115    -3.6366    -3.8957 C.3     
  31 H31           -0.0957     5.2404     0.0317 H       
  32 H32            3.3319    -0.5112    -0.0323 H       
  33 H33            3.3614     1.9266    -0.0194 H       
  34 H34            2.1496    -2.5259     0.4027 H       
  35 H35            0.3781    -2.5447     0.5750 H       
  36 H36           -3.6179     2.3867     0.0496 H       
  37 H37           -4.5197     3.8042     0.0665 H       
  38 H38            3.6325     3.3793     1.6449 H       
  39 H39            2.1327     5.7311    -1.6244 H       
  40 H40            5.3035     6.4773    -1.9987 H       
  41 H41            4.0016     7.6027    -1.5439 H       
  42 H42            5.3806     7.3474    -0.4478 H       
  43 H43            3.1868    -2.7051    -1.8204 H       
  44 H44           -1.0667    -2.7611    -1.4037 H       
  45 H45            2.3677    -4.9876    -5.5849 H       
  46 H46            2.2926    -3.3071    -6.1667 H       
  47 H47            3.8496    -4.1689    -6.1342 H       
  48 H48           -1.8948    -4.6719    -3.7058 H       
  49 H49           -2.3490    -2.9702    -3.4485 H       
  50 H50           -1.5695    -3.4628    -4.9710 H       
@<TRIPOS>BOND
   1    1    7 ar
   2    1    2 ar
   3    1    6 ar
   4    2    3 ar
   5    2   10 ar
   6    3    4 ar
   7    3   12 1
   8    4    5 ar
   9    4   31 1
  10    5    6 ar
  11    5   14 1
  12    7    8 ar
  13    7   22 1
  14    8   11 1
  15    8    9 ar
  16    9   10 ar
  17    9   32 1
  18   10   33 1
  19   11   13 1
  20   11   34 1
  21   11   35 1
  22   12   17 1
  23   12   20 2
  24   13   23 ar
  25   13   27 ar
  26   14   15 am
  27   14   16 2
  28   15   36 1
  29   15   37 1
  30   17   18 2
  31   17   38 1
  32   18   19 1
  33   19   20 1
  34   19   21 1
  35   20   39 1
  36   21   40 1
  37   21   41 1
  38   21   42 1
  39   23   24 ar
  40   23   43 1
  41   24   25 ar
  42   24   28 1
  43   25   26 ar
  44   26   30 1
  45   26   27 ar
  46   27   44 1
  47   28   29 1
  48   29   45 1
  49   29   46 1
  50   29   47 1
  51   30   48 1
  52   30   49 1
  53   30   50 1

#	End of record

