#	Name: ASD03240591
#	Creating user name:	WinNT
#	Creation time:	15. 06. 2019 20:35

#	Modifying user name:	WinNT
#	Modification time:	15. 06. 2019 20:35

#	Program:	/corina/corina34_cracker 3.40 0067  02.08.2006

@<TRIPOS>MOLECULE
ASD03240591
  66   73    0    0    0
SMALL
NO_CHARGES


@<TRIPOS>ATOM
   1 C1            -0.0703     1.5923    -0.1323 C.ar    
   2 C2            -0.1177     0.2174    -0.0290 C.ar    
   3 N3             0.9881    -0.4949     0.0758 N.ar    
   4 C4             2.1875     0.0709     0.0874 C.ar    
   5 C5             2.3105     1.4542    -0.0276 C.ar    
   6 C6             1.1634     2.2300    -0.1328 C.ar    
   7 N7             3.3145    -0.7327     0.2366 N.pl3   
   8 C8             4.1417    -0.5964     1.3482 C.ar    
   9 C9             4.8197     0.6037     1.5872 C.ar    
  10 C10            4.6868     1.7338     0.6417 C.2     
  11 N11            3.5662     2.0774    -0.0570 N.pl3   
  12 C12            4.2953    -1.6575     2.2304 C.ar    
  13 C13            5.1051    -1.5216     3.3418 C.ar    
  14 C14            5.7673    -0.3307     3.5856 C.ar    
  15 C15            5.6293     0.7320     2.7155 C.ar    
  16 N16            5.6535     2.5777     0.3404 N.2     
  17 C17            5.2086     3.4774    -0.5498 C.2     
  18 C18            3.8845     3.1826    -0.8222 C.2     
  19 C19            2.9901     3.9051    -1.7469 C.ar    
  20 C20            2.8031     5.2829    -1.6096 C.ar    
  21 C21            2.3305     3.2157    -2.7676 C.ar    
  22 C22            1.4963     3.8976    -3.6286 C.ar    
  23 C23            1.3122     5.2615    -3.4835 C.ar    
  24 C24            1.9659     5.9517    -2.4779 C.ar    
  25 C25            5.9948     4.5883    -1.1366 C.2     
  26 C26            0.3994     5.9996    -4.4286 C.3     
  27 N27           -0.5553     5.1137    -5.1080 N.3     
  28 C28           -0.2517     7.2468    -3.8080 C.3     
  29 C29           -0.0170     7.9447    -5.1581 C.3     
  30 C30            1.1397     6.9535    -5.3809 C.3     
  31 C31            6.1763     4.6562    -2.4847 C.2     
  32 N32            6.8981     5.6743    -3.0349 N.pl3   
  33 C33            7.4514     6.6447    -2.2408 C.2     
  34 C34            7.2747     6.5927    -0.8423 C.2     
  35 C35            6.5519     5.5814    -0.2966 C.2     
  36 C36            6.3533     5.5108     1.1956 C.3     
  37 C37            7.2288     5.9782    -4.3280 C.2     
  38 C38            7.9655     7.1102    -4.2956 C.2     
  39 N39            8.0913     7.5009    -3.0252 N.2     
  40 H40           -0.9817     2.1657    -0.2162 H       
  41 H41           -1.0745    -0.2836    -0.0337 H       
  42 H42            1.2293     3.3050    -0.2131 H       
  43 H43            3.5255    -1.3944    -0.4406 H       
  44 H44            3.7813    -2.5897     2.0480 H       
  45 H45            5.2217    -2.3498     4.0251 H       
  46 H46            6.3941    -0.2327     4.4596 H       
  47 H47            6.1474     1.6599     2.9076 H       
  48 H48            3.3126     5.8228    -0.8252 H       
  49 H49            2.4739     2.1514    -2.8824 H       
  50 H50            0.9859     3.3661    -4.4180 H       
  51 H51            1.8175     7.0160    -2.3706 H       
  52 H52           -0.0840     4.3229    -5.5211 H       
  53 H53           -1.2816     4.8120    -4.4758 H       
  54 H54           -1.3053     7.1132    -3.5629 H       
  55 H55            0.3233     7.6774    -2.9881 H       
  56 H56           -0.8391     7.8198    -5.8628 H       
  57 H57            0.3070     8.9811    -5.0634 H       
  58 H58            2.0957     7.3033    -4.9913 H       
  59 H59            1.2080     6.5850    -6.4045 H       
  60 H60            5.7459     3.8983    -3.1225 H       
  61 H61            7.7080     7.3540    -0.2106 H       
  62 H62            6.8598     6.3515     1.6697 H       
  63 H63            5.2881     5.5533     1.4228 H       
  64 H64            6.7685     4.5765     1.5736 H       
  65 H65            6.9527     5.4179    -5.2090 H       
  66 H66            8.3834     7.6147    -5.1543 H       
@<TRIPOS>BOND
   1    1    2 ar
   2    1    6 ar
   3    1   40 1
   4    2    3 ar
   5    2   41 1
   6    3    4 ar
   7    4    5 ar
   8    4    7 1
   9    5    6 ar
  10    5   11 1
  11    6   42 1
  12    7    8 1
  13    7   43 1
  14    8    9 ar
  15    8   12 ar
  16    9   10 1
  17    9   15 ar
  18   10   11 1
  19   10   16 2
  20   11   18 1
  21   12   13 ar
  22   12   44 1
  23   13   14 ar
  24   13   45 1
  25   14   15 ar
  26   14   46 1
  27   15   47 1
  28   16   17 1
  29   17   18 2
  30   17   25 1
  31   18   19 1
  32   19   20 ar
  33   19   21 ar
  34   20   24 ar
  35   20   48 1
  36   21   22 ar
  37   21   49 1
  38   22   23 ar
  39   22   50 1
  40   23   24 ar
  41   23   26 1
  42   24   51 1
  43   25   31 2
  44   25   35 1
  45   26   27 1
  46   26   28 1
  47   26   30 1
  48   27   52 1
  49   27   53 1
  50   28   29 1
  51   28   54 1
  52   28   55 1
  53   29   30 1
  54   29   56 1
  55   29   57 1
  56   30   58 1
  57   30   59 1
  58   31   32 1
  59   31   60 1
  60   32   33 1
  61   32   37 1
  62   33   34 1
  63   33   39 2
  64   34   35 2
  65   34   61 1
  66   35   36 1
  67   36   62 1
  68   36   63 1
  69   36   64 1
  70   37   38 2
  71   37   65 1
  72   38   39 1
  73   38   66 1

#	End of record

