#	Name: ASD01910065
#	Creating user name:	WinNT
#	Creation time:	15. 06. 2019 19:55

#	Modifying user name:	WinNT
#	Modification time:	15. 06. 2019 19:55

#	Program:	/corina/corina34_cracker 3.40 0067  02.08.2006

@<TRIPOS>MOLECULE
ASD01910065
  49   52    0    0    0
SMALL
NO_CHARGES


@<TRIPOS>ATOM
   1 C1            -0.0158     1.3125     0.0093 C.2     
   2 N2             0.0021    -0.0041     0.0020 N.2     
   3 N3            -1.3213    -0.4626     0.0122 N.pl3   
   4 C4            -2.1429     0.6239     0.0258 C.2     
   5 C5            -1.3586     1.7340     0.0305 C.2     
   6 C6             1.1743     2.1988     0.0027 C.ar    
   7 C7             2.4550     1.6498    -0.0130 C.ar    
   8 C8             3.5584     2.4789    -0.0196 C.ar    
   9 C9             3.3947     3.8523    -0.0102 C.ar    
  10 C10            2.1258     4.4027     0.0054 C.ar    
  11 C11            1.0153     3.5831     0.0063 C.ar    
  12 C12           -1.7285    -1.8029     0.0082 C.ar    
  13 N13           -3.5358     0.6012     0.0386 N.am    
  14 C14           -4.2285     1.7573     0.0514 C.2     
  15 C15           -5.6920     1.7334     0.0648 C.2     
  16 O16           -3.6371     2.8211     0.0520 O.2     
  17 C17           -0.9953    -2.7507    -0.6936 C.ar    
  18 C18           -1.3994    -4.0714    -0.6956 C.ar    
  19 C19           -2.5331    -4.4501    -0.0002 C.ar    
  20 C20           -3.2654    -3.5087     0.6995 C.ar    
  21 C21           -2.8630    -2.1875     0.7105 C.ar    
  22 C22           -6.3850     2.8900     0.0777 C.2     
  23 C23           -7.8567     2.8661     0.0911 C.ar    
  24 C24           -8.5790     4.0635     0.1045 C.ar    
  25 C25           -9.9575     4.0327     0.1166 C.ar    
  26 C26          -10.6263     2.8210     0.1155 C.ar    
  27 C27           -9.9185     1.6317     0.1023 C.ar    
  28 C28           -8.5398     1.6459     0.0848 C.ar    
  29 N29          -12.1062     2.7970     0.1290 N.pl3   
  30 O30          -12.7322     3.8417     0.1410 O.2     
  31 O31          -12.6980     1.7324     0.1281 O.2     
  32 H32           -1.7042     2.7572     0.0409 H       
  33 H33            2.5839     0.5775    -0.0197 H       
  34 H34            4.5514     2.0544    -0.0318 H       
  35 H35            4.2609     4.4974    -0.0146 H       
  36 H36            2.0037     5.4758     0.0127 H       
  37 H37            0.0250     4.0138     0.0185 H       
  38 H38           -4.0071    -0.2466     0.0382 H       
  39 H39           -6.2167     0.7895     0.0644 H       
  40 H40           -0.1102    -2.4554    -1.2374 H       
  41 H41           -0.8296    -4.8090    -1.2412 H       
  42 H42           -2.8475    -5.4834    -0.0039 H       
  43 H43           -4.1504    -3.8076     1.2417 H       
  44 H44           -3.4351    -1.4527     1.2576 H       
  45 H45           -5.8602     3.8340     0.0781 H       
  46 H46           -8.0585     5.0098     0.1058 H       
  47 H47          -10.5167     4.9566     0.1273 H       
  48 H48          -10.4475     0.6902     0.1015 H       
  49 H49           -7.9889     0.7170     0.0744 H       
@<TRIPOS>BOND
   1    1    2 2
   2    1    6 1
   3    1    5 1
   4    2    3 1
   5    3    4 1
   6    3   12 1
   7    4    5 2
   8    4   13 1
   9    5   32 1
  10    6    7 ar
  11    6   11 ar
  12    7    8 ar
  13    7   33 1
  14    8    9 ar
  15    8   34 1
  16    9   10 ar
  17    9   35 1
  18   10   11 ar
  19   10   36 1
  20   11   37 1
  21   12   17 ar
  22   12   21 ar
  23   13   14 am
  24   13   38 1
  25   14   15 1
  26   14   16 2
  27   15   22 2
  28   15   39 1
  29   17   18 ar
  30   17   40 1
  31   18   19 ar
  32   18   41 1
  33   19   20 ar
  34   19   42 1
  35   20   21 ar
  36   20   43 1
  37   21   44 1
  38   22   23 1
  39   22   45 1
  40   23   24 ar
  41   23   28 ar
  42   24   25 ar
  43   24   46 1
  44   25   26 ar
  45   25   47 1
  46   26   27 ar
  47   26   29 1
  48   27   28 ar
  49   27   48 1
  50   28   49 1
  51   29   30 2
  52   29   31 2

#	End of record

