#	Name: ASD01810777
#	Creating user name:	WinNT
#	Creation time:	15. 06. 2019 19:25

#	Modifying user name:	WinNT
#	Modification time:	15. 06. 2019 19:25

#	Program:	/corina/corina34_cracker 3.40 0067  02.08.2006

@<TRIPOS>MOLECULE
ASD01810777
  12   11    0    0    0
SMALL
NO_CHARGES


@<TRIPOS>ATOM
   1 C1            -0.0184     1.5028     0.0103 C.2     
   2 C2             0.0021    -0.0041     0.0020 C.3     
   3 O3             1.0236     2.1234     0.0037 O.2     
   4 N4            -1.1946     2.1607     0.0195 N.am    
   5 N5            -1.2131     3.5266     0.0270 N.3     
   6 C6             1.3964    -0.4758    -0.0138 C.1     
   7 N7             2.4724    -0.8398    -0.0261 N.1     
   8 H8            -0.4983    -0.3791     0.8948 H       
   9 H9            -0.5153    -0.3696    -0.8850 H       
  10 H10           -2.0280     1.6644     0.0207 H       
  11 H11           -0.6957     3.8995    -0.7548 H       
  12 H12           -2.1599     3.8753     0.0334 H       
@<TRIPOS>BOND
   1    1    2 1
   2    1    3 2
   3    1    4 am
   4    2    6 1
   5    2    8 1
   6    2    9 1
   7    4    5 1
   8    4   10 1
   9    5   11 1
  10    5   12 1
  11    6    7 3

#	End of record

