#	Name: ASD02030323
#	Creating user name:	WinNT
#	Creation time:	15. 06. 2019 20:15

#	Modifying user name:	WinNT
#	Modification time:	15. 06. 2019 20:15

#	Program:	/corina/corina34_cracker 3.40 0067  02.08.2006

@<TRIPOS>MOLECULE
ASD02030323
  65   69    0    0    0
SMALL
NO_CHARGES


@<TRIPOS>ATOM
   1 N1            -0.1417     1.4416    -0.8336 N.am    
   2 C2            -0.1636    -0.0253    -0.7468 C.3     
   3 C3            -0.9394    -0.4301     0.5128 C.3     
   4 N4            -2.2148     0.2998     0.5337 N.am    
   5 C5            -2.1928     1.7667     0.4469 C.3     
   6 C6            -1.4168     2.1719    -0.8071 C.3     
   7 C7             1.0272     2.1056    -0.9302 C.2     
   8 C8             2.3056     1.3731    -0.8097 C.2     
   9 N9             3.5042     1.9126    -0.7540 N.2     
  10 N10            2.4480     0.0372    -0.7319 N.2     
  11 C11            3.7290    -0.2124    -0.6353 C.2     
  12 N12            4.3771     0.9705    -0.6503 N.pl3   
  13 O13            1.0302     3.3069    -1.1164 O.2     
  14 C14           -3.3836    -0.3642     0.6303 C.2     
  15 C15           -3.3972    -1.8433     0.6180 C.ar    
  16 O16           -4.4266     0.2524     0.7276 O.2     
  17 C17           -1.1474     3.6777    -0.7801 C.3     
  18 C18           -2.2306     1.8146    -2.0524 C.3     
  19 C19            5.7651     1.1452    -0.5677 C.ar    
  20 C20            6.3080     2.4224    -0.5942 C.ar    
  21 C21            7.6777     2.5914    -0.5120 C.ar    
  22 C22            8.5065     1.4886    -0.4038 C.ar    
  23 C23            7.9675     0.2154    -0.3772 C.ar    
  24 C24            6.5997     0.0410    -0.4532 C.ar    
  25 N25           -2.3124    -2.5101     1.0256 N.ar    
  26 C26           -2.2532    -3.8228     1.0421 C.ar    
  27 C27           -3.3627    -4.5882     0.6187 C.ar    
  28 C28           -4.5305    -3.9125     0.1798 C.ar    
  29 C29           -4.5332    -2.5049     0.1907 C.ar    
  30 O30           -1.1257    -4.4435     1.4656 O.3     
  31 C31           -0.0419    -3.6089     1.8791 C.3     
  32 Cl32           8.3583     4.1881    -0.5451 Cl      
  33 C33           -3.3356    -5.9890     0.6220 C.ar    
  34 C34           -4.4274    -6.6883     0.2052 C.ar    
  35 C35           -5.5816    -6.0300    -0.2286 C.ar    
  36 C36           -5.6416    -4.6531    -0.2445 C.ar    
  37 O37           -6.6549    -6.7545    -0.6385 O.3     
  38 C38           -6.5307    -8.1775    -0.5984 C.3     
  39 H39           -0.6563    -0.4366    -1.6278 H       
  40 H40            0.8568    -0.4034    -0.6853 H       
  41 H41           -1.1320    -1.5028     0.4948 H       
  42 H42           -0.3574    -0.1752     1.3985 H       
  43 H43           -3.2133     2.1449     0.3854 H       
  44 H44           -1.7001     2.1780     1.3279 H       
  45 H45            4.1845    -1.1884    -0.5548 H       
  46 H46           -0.3392     3.8897    -0.0801 H       
  47 H47           -0.8621     4.0137    -1.7770 H       
  48 H48           -2.0489     4.2025    -0.4639 H       
  49 H49           -3.1827     2.3447    -2.0288 H       
  50 H50           -1.6755     2.1042    -2.9447 H       
  51 H51           -2.4134     0.7402    -2.0711 H       
  52 H52            5.6612     3.2831    -0.6793 H       
  53 H53            9.5763     1.6224    -0.3404 H       
  54 H54            8.6169    -0.6435    -0.2931 H       
  55 H55            6.1798    -0.9538    -0.4320 H       
  56 H56           -5.4023    -1.9530    -0.1355 H       
  57 H57            0.7963    -4.2308     2.1932 H       
  58 H58            0.2670    -2.9759     1.0473 H       
  59 H59           -0.3625    -2.9833     2.7122 H       
  60 H60           -2.4513    -6.5127     0.9539 H       
  61 H61           -4.4008    -7.7680     0.2096 H       
  62 H62           -6.5362    -4.1501    -0.5808 H       
  63 H63           -5.7055    -8.4884    -1.2392 H       
  64 H64           -6.3358    -8.4965     0.4255 H       
  65 H65           -7.4560    -8.6331    -0.9510 H       
@<TRIPOS>BOND
   1    1    2 1
   2    1    7 am
   3    1    6 1
   4    2    3 1
   5    2   39 1
   6    2   40 1
   7    3    4 1
   8    3   41 1
   9    3   42 1
  10    4    5 1
  11    4   14 am
  12    5    6 1
  13    5   43 1
  14    5   44 1
  15    6   17 1
  16    6   18 1
  17    7    8 1
  18    7   13 2
  19    8    9 2
  20    8   10 1
  21    9   12 1
  22   10   11 2
  23   11   12 1
  24   11   45 1
  25   12   19 1
  26   14   15 1
  27   14   16 2
  28   15   25 ar
  29   15   29 ar
  30   17   46 1
  31   17   47 1
  32   17   48 1
  33   18   49 1
  34   18   50 1
  35   18   51 1
  36   19   20 ar
  37   19   24 ar
  38   20   21 ar
  39   20   52 1
  40   21   22 ar
  41   21   32 1
  42   22   23 ar
  43   22   53 1
  44   23   24 ar
  45   23   54 1
  46   24   55 1
  47   25   26 ar
  48   26   27 ar
  49   26   30 1
  50   27   28 ar
  51   27   33 ar
  52   28   29 ar
  53   28   36 ar
  54   29   56 1
  55   30   31 1
  56   31   57 1
  57   31   58 1
  58   31   59 1
  59   33   34 ar
  60   33   60 1
  61   34   35 ar
  62   34   61 1
  63   35   36 ar
  64   35   37 1
  65   36   62 1
  66   37   38 1
  67   38   63 1
  68   38   64 1
  69   38   65 1

#	End of record

