#	Name: ASD03730319
#	Creating user name:	WinNT
#	Creation time:	15. 06. 2019 20:44

#	Modifying user name:	WinNT
#	Modification time:	15. 06. 2019 20:44

#	Program:	/corina/corina34_cracker 3.40 0067  02.08.2006

@<TRIPOS>MOLECULE
ASD03730319
  58   63    0    0    0
SMALL
NO_CHARGES


@<TRIPOS>ATOM
   1 O1             0.0361     1.4238    -0.0829 O.3     
   2 C2             0.0752    -0.0151    -0.1196 C.3     
   3 O3             1.3320    -0.3069    -0.7584 O.3     
   4 C4             2.1394     0.7589    -0.4803 C.ar    
   5 C5             1.3417     1.8237    -0.0678 C.ar    
   6 C6             3.5131     0.9082    -0.5444 C.ar    
   7 C7             4.1072     2.1196    -0.2038 C.ar    
   8 C8             3.2991     3.1803     0.1946 C.ar    
   9 C9             1.9298     3.0316     0.2678 C.ar    
  10 O10            5.4259     2.4672    -0.1795 O.3     
  11 C11            4.2172     4.3433     0.4591 C.3     
  12 C12            5.5384     3.9033    -0.1865 C.3     
  13 N13            3.5905     6.5012     0.8760 N.am    
  14 C14            3.7024     5.6212    -0.1389 C.2     
  15 C15            4.3762     4.6256     1.9233 C.ar    
  16 C16            4.8053     3.8718     3.0015 C.ar    
  17 C17            4.8406     4.4360     4.2718 C.ar    
  18 C18            4.4463     5.7481     4.4506 C.ar    
  19 C19            4.0179     6.5010     3.3766 C.ar    
  20 C20            3.9786     5.9472     2.0984 C.ar    
  21 O21            3.4397     5.8221    -1.3058 O.2     
  22 C22            3.1175     7.8784     0.7158 C.3     
  23 C23            1.5982     7.9195     0.8915 C.3     
  24 C24            1.1041     9.3578     0.7242 C.3     
  25 C25           -0.4152     9.3989     0.8998 C.3     
  26 C26           -0.9092    10.8373     0.7325 C.3     
  27 N27            5.2023     2.5451     2.8139 N.pl3   
  28 S28            7.2202     2.9139     4.6456 S.3     
  29 C29            6.2398     2.0184     3.5686 C.2     
  30 N30            6.6074     0.7746     3.5605 N.2     
  31 C31            7.6183     0.4457     4.3444 C.2     
  32 C32            8.1279     1.4584     5.0469 C.2     
  33 C33            8.1529    -0.9602     4.4371 C.3     
  34 H34            0.0547    -0.4247     0.8903 H       
  35 H35           -0.7540    -0.4059    -0.7093 H       
  36 H36            4.1286     0.0793    -0.8613 H       
  37 H37            1.3145     3.8597     0.5873 H       
  38 H38            6.3891     4.2278     0.4129 H       
  39 H39            5.6156     4.2806    -1.2062 H       
  40 H40            5.1746     3.8507     5.1157 H       
  41 H41            4.4733     6.1870     5.4370 H       
  42 H42            3.7115     7.5256     3.5274 H       
  43 H43            3.5874     8.5136     1.4667 H       
  44 H44            3.3781     8.2386    -0.2794 H       
  45 H45            1.1283     7.2843     0.1406 H       
  46 H46            1.3376     7.5593     1.8867 H       
  47 H47            1.5740     9.9931     1.4750 H       
  48 H48            1.3647     9.7181    -0.2711 H       
  49 H49           -0.8851     8.7637     0.1489 H       
  50 H50           -0.6758     9.0387     1.8950 H       
  51 H51           -0.6487    11.1975    -0.2627 H       
  52 H52           -1.9916    10.8665     0.8576 H       
  53 H53           -0.4394    11.4725     1.4834 H       
  54 H54            4.7521     1.9926     2.1559 H       
  55 H55            8.9536     1.3969     5.7403 H       
  56 H56            8.9397    -1.0993     3.6956 H       
  57 H57            8.5594    -1.1293     5.4342 H       
  58 H58            7.3465    -1.6688     4.2485 H       
@<TRIPOS>BOND
   1    1    2 1
   2    1    5 1
   3    2    3 1
   4    2   34 1
   5    2   35 1
   6    3    4 1
   7    4    5 ar
   8    4    6 ar
   9    5    9 ar
  10    6    7 ar
  11    6   36 1
  12    7    8 ar
  13    7   10 1
  14    8    9 ar
  15    8   11 1
  16    9   37 1
  17   10   12 1
  18   11   12 1
  19   11   14 1
  20   11   15 1
  21   12   38 1
  22   12   39 1
  23   13   14 am
  24   13   20 1
  25   13   22 1
  26   14   21 2
  27   15   16 ar
  28   15   20 ar
  29   16   17 ar
  30   16   27 1
  31   17   18 ar
  32   17   40 1
  33   18   19 ar
  34   18   41 1
  35   19   20 ar
  36   19   42 1
  37   22   23 1
  38   22   43 1
  39   22   44 1
  40   23   24 1
  41   23   45 1
  42   23   46 1
  43   24   25 1
  44   24   47 1
  45   24   48 1
  46   25   26 1
  47   25   49 1
  48   25   50 1
  49   26   51 1
  50   26   52 1
  51   26   53 1
  52   27   29 1
  53   27   54 1
  54   28   29 1
  55   28   32 1
  56   29   30 2
  57   30   31 1
  58   31   32 2
  59   31   33 1
  60   32   55 1
  61   33   56 1
  62   33   57 1
  63   33   58 1

#	End of record

