#	Name: ASD01911746
#	Creating user name:	WinNT
#	Creation time:	15. 06. 2019 19:58

#	Modifying user name:	WinNT
#	Modification time:	15. 06. 2019 19:58

#	Program:	/corina/corina34_cracker 3.40 0067  02.08.2006

@<TRIPOS>MOLECULE
ASD01911746
  38   40    0    0    0
SMALL
NO_CHARGES


@<TRIPOS>ATOM
   1 N1            -0.0178     1.4648     0.0101 N.3     
   2 C2             0.0021    -0.0041     0.0020 C.3     
   3 C3            -1.3925    -0.5241    -0.2342 C.2     
   4 C4            -1.9403    -0.7865    -1.4272 C.2     
   5 S5            -2.5802    -0.8986     1.0130 S.3     
   6 C6            -3.7305    -1.3771    -0.2326 C.2     
   7 N7            -3.1730    -1.2339    -1.4050 N.2     
   8 C8            -5.0609    -1.8518     0.0028 C.1     
   9 C9            -6.1515    -2.2410     0.1958 C.1     
  10 C10           -7.4819    -2.7158     0.4312 C.ar    
  11 C11           -8.3033    -3.0662    -0.6444 C.ar    
  12 C12           -0.7848     1.9744     1.1540 C.3     
  13 C13           -9.5831    -3.5231    -0.4097 C.ar    
  14 C14          -10.0549    -3.6350     0.8865 C.ar    
  15 C15           -9.2478    -3.2896     1.9564 C.ar    
  16 C16           -7.9637    -2.8367     1.7379 C.ar    
  17 C17            1.3458     2.0096     0.0000 C.3     
  18 C18            1.2870     3.5326    -0.1380 C.3     
  19 C19            0.4928     4.1162     1.0339 C.3     
  20 C20           -0.9072     3.4963     1.0504 C.3     
  21 H21            0.6600    -0.3541    -0.7934 H       
  22 H22            0.3677    -0.3678     0.9623 H       
  23 H23           -1.4006    -0.6385    -2.3509 H       
  24 H24           -7.9367    -2.9790    -1.6565 H       
  25 H25           -1.7797     1.5290     1.1516 H       
  26 H26           -0.2725     1.7134     2.0800 H       
  27 H27          -10.2190    -3.7938    -1.2396 H       
  28 H28          -11.0581    -3.9934     1.0640 H       
  29 H29           -9.6230    -3.3793     2.9651 H       
  30 H30           -7.3349    -2.5679     2.5738 H       
  31 H31            1.8481     1.7485     0.9314 H       
  32 H32            1.8984     1.5899    -0.8405 H       
  33 H33            2.2987     3.9381    -0.1298 H       
  34 H34            0.7970     3.7944    -1.0758 H       
  35 H35            1.0033     3.8878     1.9695 H       
  36 H36            0.4114     5.1968     0.9166 H       
  37 H37           -1.4317     3.7575     0.1313 H       
  38 H38           -1.4632     3.8759     1.9077 H       
@<TRIPOS>BOND
   1    1    2 1
   2    1   17 1
   3    1   12 1
   4    2    3 1
   5    2   21 1
   6    2   22 1
   7    3    4 2
   8    3    5 1
   9    4    7 1
  10    4   23 1
  11    5    6 1
  12    6    7 2
  13    6    8 1
  14    8    9 3
  15    9   10 1
  16   10   11 ar
  17   10   16 ar
  18   11   13 ar
  19   11   24 1
  20   12   20 1
  21   12   25 1
  22   12   26 1
  23   13   14 ar
  24   13   27 1
  25   14   15 ar
  26   14   28 1
  27   15   16 ar
  28   15   29 1
  29   16   30 1
  30   17   18 1
  31   17   31 1
  32   17   32 1
  33   18   19 1
  34   18   33 1
  35   18   34 1
  36   19   20 1
  37   19   35 1
  38   19   36 1
  39   20   37 1
  40   20   38 1

#	End of record

