#	Name: ASD04881147
#	Creating user name:	WinNT
#	Creation time:	15. 06. 2019 20:53

#	Modifying user name:	WinNT
#	Modification time:	15. 06. 2019 20:53

#	Program:	/corina/corina34_cracker 3.40 0067  02.08.2006

@<TRIPOS>MOLECULE
ASD04881147
  86   91    0    0    0
SMALL
NO_CHARGES


@<TRIPOS>ATOM
   1 C1            -0.0574     1.4730     0.0387 C.3     
   2 C2            -0.0171    -0.0575     0.0201 C.3     
   3 C3             0.7829    -0.5566     1.2255 C.3     
   4 N4             2.1457    -0.0125     1.1694 N.3     
   5 C5             2.1348     1.4545     1.2337 C.3     
   6 C6             1.3752     2.0136     0.0285 C.3     
   7 C7             2.9397    -0.5504     2.1789 C.ar    
   8 C8             2.5850    -0.3707     3.5111 C.ar    
   9 C9             3.3677    -0.9006     4.5127 C.ar    
  10 C10            4.5215    -1.6215     4.1924 C.ar    
  11 C11            4.8800    -1.8040     2.8538 C.ar    
  12 C12            4.0890    -1.2751     1.8514 C.ar    
  13 N13            4.4419    -1.4607     0.5082 N.am    
  14 C14            5.7412    -1.4991     0.1519 C.2     
  15 C15            6.1151    -1.8177    -1.2378 C.2     
  16 O16            6.6051    -1.2710     0.9771 O.2     
  17 N17            5.2622    -2.0930    -2.2617 N.2     
  18 C18            5.9633    -2.3233    -3.3311 C.2     
  19 O19            7.2664    -2.2067    -3.0389 O.3     
  20 C20            7.3784    -1.8862    -1.7399 C.2     
  21 C21            5.3600    -2.1886     5.2656 C.2     
  22 N22            5.0136    -2.0117     6.5560 N.am    
  23 O23            6.3636    -2.8156     4.9859 O.2     
  24 C24            5.8463    -2.5748     7.6217 C.3     
  25 C25            5.2347    -2.2321     8.9817 C.3     
  26 C26            6.1043    -2.8202    10.0947 C.3     
  27 N27            5.5188    -2.4921    11.3969 N.am    
  28 C28            4.5392    -3.3295    12.0991 C.3     
  29 C29            3.9001    -2.4111    13.1642 C.3     
  30 C30            5.0169    -1.3659    13.3904 C.3     
  31 C31            5.8139    -1.3881    12.1047 C.2     
  32 O32            6.6025    -0.5330    11.7613 O.2     
  33 N33           -0.7742     1.9597    -1.1476 N.3     
  34 C34           -2.1214     1.3790    -1.2237 C.3     
  35 C35           -0.8292     3.3553    -1.1616 C.ar    
  36 C36           -1.4477     4.0382    -0.1217 C.ar    
  37 C37           -1.4999     5.4179    -0.1385 C.ar    
  38 C38           -0.9378     6.1201    -1.1891 C.ar    
  39 C39           -0.3215     5.4436    -2.2256 C.ar    
  40 C40           -0.2607     4.0638    -2.2123 C.ar    
  41 C41            0.4167     3.3276    -3.3394 C.3     
  42 C42            5.4005    -2.6680    -4.6859 C.3     
  43 C43            5.7240    -1.7246    -5.8462 C.3     
  44 C44            6.3877    -3.1011    -5.7717 C.3     
  45 H45           -0.5686     1.8130     0.9393 H       
  46 H46           -1.0332    -0.4489     0.0703 H       
  47 H47            0.4595    -0.3979    -0.8992 H       
  48 H48            0.2980    -0.2276     2.1446 H       
  49 H49            0.8255    -1.6456     1.2073 H       
  50 H50            1.6436     1.7741     2.1527 H       
  51 H51            3.1594     1.8261     1.2215 H       
  52 H52            1.8737     1.7059    -0.8906 H       
  53 H53            1.3538     3.1019     0.0848 H       
  54 H54            1.6939     0.1859     3.7610 H       
  55 H55            3.0899    -0.7587     5.5467 H       
  56 H56            5.7712    -2.3602     2.6032 H       
  57 H57            3.7511    -1.5614    -0.1653 H       
  58 H58            8.2961    -1.7171    -1.1963 H       
  59 H59            4.2130    -1.5115     6.7791 H       
  60 H60            5.8975    -3.6577     7.5089 H       
  61 H61            6.8502    -2.1550     7.5586 H       
  62 H62            5.1835    -1.1492     9.0945 H       
  63 H63            4.2308    -2.6519     9.0448 H       
  64 H64            6.1556    -3.9032     9.9819 H       
  65 H65            7.1083    -2.4004    10.0316 H       
  66 H66            3.7796    -3.6856    11.4032 H       
  67 H67            5.0379    -4.1723    12.5779 H       
  68 H68            2.9958    -1.9390    12.7802 H       
  69 H69            3.6911    -2.9632    14.0805 H       
  70 H70            4.5869    -0.3786    13.5589 H       
  71 H71            5.6473    -1.6569    14.2306 H       
  72 H72           -2.6876     1.6569    -0.3348 H       
  73 H73           -2.6299     1.7560    -2.1110 H       
  74 H74           -2.0462     0.2931    -1.2819 H       
  75 H75           -1.8875     3.4905     0.6986 H       
  76 H76           -1.9806     5.9494     0.6696 H       
  77 H77           -0.9806     7.1992    -1.2002 H       
  78 H78            0.1165     5.9949    -3.0446 H       
  79 H79           -0.3116     3.1098    -4.1206 H       
  80 H80            1.2153     3.9460    -3.7492 H       
  81 H81            0.8362     2.3944    -2.9635 H       
  82 H82            4.4184    -3.1408    -4.6806 H       
  83 H83            4.9549    -1.5770    -6.6043 H       
  84 H84            6.3440    -0.8546    -5.6296 H       
  85 H85            7.4442    -3.1368    -5.5060 H       
  86 H86            6.0551    -3.8592    -6.4808 H       
@<TRIPOS>BOND
   1    1    2 1
   2    1    6 1
   3    1   33 1
   4    1   45 1
   5    2    3 1
   6    2   46 1
   7    2   47 1
   8    3    4 1
   9    3   48 1
  10    3   49 1
  11    4    5 1
  12    4    7 1
  13    5    6 1
  14    5   50 1
  15    5   51 1
  16    6   52 1
  17    6   53 1
  18    7    8 ar
  19    7   12 ar
  20    8    9 ar
  21    8   54 1
  22    9   10 ar
  23    9   55 1
  24   10   11 ar
  25   10   21 1
  26   11   12 ar
  27   11   56 1
  28   12   13 1
  29   13   14 am
  30   13   57 1
  31   14   15 1
  32   14   16 2
  33   15   17 1
  34   15   20 2
  35   17   18 2
  36   18   19 1
  37   18   42 1
  38   19   20 1
  39   20   58 1
  40   21   22 am
  41   21   23 2
  42   22   24 1
  43   22   59 1
  44   24   25 1
  45   24   60 1
  46   24   61 1
  47   25   26 1
  48   25   62 1
  49   25   63 1
  50   26   27 1
  51   26   64 1
  52   26   65 1
  53   27   28 1
  54   27   31 am
  55   28   29 1
  56   28   66 1
  57   28   67 1
  58   29   30 1
  59   29   68 1
  60   29   69 1
  61   30   31 1
  62   30   70 1
  63   30   71 1
  64   31   32 2
  65   33   34 1
  66   33   35 1
  67   34   72 1
  68   34   73 1
  69   34   74 1
  70   35   36 ar
  71   35   40 ar
  72   36   37 ar
  73   36   75 1
  74   37   38 ar
  75   37   76 1
  76   38   39 ar
  77   38   77 1
  78   39   40 ar
  79   39   78 1
  80   40   41 1
  81   41   79 1
  82   41   80 1
  83   41   81 1
  84   42   43 1
  85   42   44 1
  86   42   82 1
  87   43   44 1
  88   43   83 1
  89   43   84 1
  90   44   85 1
  91   44   86 1

#	End of record

