#	Name: ASD01915253
#	Creating user name:	WinNT
#	Creation time:	15. 06. 2019 20:05

#	Modifying user name:	WinNT
#	Modification time:	15. 06. 2019 20:05

#	Program:	/corina/corina34_cracker 3.40 0067  02.08.2006

@<TRIPOS>MOLECULE
ASD01915253
  44   46    0    0    0
SMALL
NO_CHARGES


@<TRIPOS>ATOM
   1 C1            -0.0167     1.3781     0.0096 C.ar    
   2 C2             0.0021    -0.0041     0.0020 C.ar    
   3 C3            -1.1855    -0.7115     0.0095 C.ar    
   4 C4            -2.3919    -0.0367     0.0251 C.ar    
   5 C5            -2.4106     1.3455     0.0336 C.ar    
   6 C6            -1.2230     2.0529     0.0305 C.ar    
   7 C7             1.2780     2.1493     0.0014 C.3     
   8 O8             1.6744     2.4003    -1.3484 O.3     
   9 C9             2.8972     3.1299    -1.4690 C.3     
  10 C10            3.2171     3.3366    -2.9271 C.2     
  11 N11            4.3319     4.0045    -3.2843 N.am    
  12 O12            2.4714     2.9019    -3.7791 O.2     
  13 C13            4.6630     4.2173    -4.7014 C.3     
  14 C14            4.9485     5.7075    -4.9161 C.3     
  15 N15            5.9778     6.1476    -3.9649 N.3     
  16 C16            5.5121     6.0173    -2.5778 C.3     
  17 C17            5.2466     4.5451    -2.2672 C.3     
  18 C18            6.3815     7.4517    -4.2351 C.ar    
  19 C19            7.3544     8.0758    -3.4544 C.ar    
  20 C20            7.7265     9.3691    -3.7551 C.ar    
  21 N21            7.1749    10.0144    -4.7658 N.ar    
  22 C22            6.2514     9.4586    -5.5277 C.ar    
  23 C23            5.8280     8.1667    -5.2970 C.ar    
  24 H24            0.9446    -0.5313    -0.0101 H       
  25 H25           -1.1709    -1.7913     0.0029 H       
  26 H26           -3.3198    -0.5893     0.0302 H       
  27 H27           -3.3531     1.8728     0.0454 H       
  28 H28           -1.2376     3.1328     0.0372 H       
  29 H29            1.1397     3.0971     0.5217 H       
  30 H30            2.0505     1.5679     0.5048 H       
  31 H31            2.7924     4.0980    -0.9792 H       
  32 H32            3.7032     2.5688    -0.9961 H       
  33 H33            5.5458     3.6340    -4.9628 H       
  34 H34            3.8217     3.9123    -5.3238 H       
  35 H35            5.3024     5.8669    -5.9347 H       
  36 H36            4.0351     6.2798    -4.7543 H       
  37 H37            6.2749     6.4014    -1.9005 H       
  38 H38            4.5909     6.5853    -2.4485 H       
  39 H39            4.7933     4.4551    -1.2800 H       
  40 H40            6.1843     3.9901    -2.2946 H       
  41 H41            7.8095     7.5536    -2.6258 H       
  42 H42            8.4788     9.8604    -3.1558 H       
  43 H43            5.8249    10.0215    -6.3448 H       
  44 H44            5.0723     7.7178    -5.9245 H       
@<TRIPOS>BOND
   1    1    2 ar
   2    1    7 1
   3    1    6 ar
   4    2    3 ar
   5    2   24 1
   6    3    4 ar
   7    3   25 1
   8    4    5 ar
   9    4   26 1
  10    5    6 ar
  11    5   27 1
  12    6   28 1
  13    7    8 1
  14    7   29 1
  15    7   30 1
  16    8    9 1
  17    9   10 1
  18    9   31 1
  19    9   32 1
  20   10   11 am
  21   10   12 2
  22   11   13 1
  23   11   17 1
  24   13   14 1
  25   13   33 1
  26   13   34 1
  27   14   15 1
  28   14   35 1
  29   14   36 1
  30   15   16 1
  31   15   18 1
  32   16   17 1
  33   16   37 1
  34   16   38 1
  35   17   39 1
  36   17   40 1
  37   18   19 ar
  38   18   23 ar
  39   19   20 ar
  40   19   41 1
  41   20   21 ar
  42   20   42 1
  43   21   22 ar
  44   22   23 ar
  45   22   43 1
  46   23   44 1

#	End of record

