#	Name: ASD06300004
#	Creating user name:	WinNT
#	Creation time:	15. 06. 2019 21:05

#	Modifying user name:	WinNT
#	Modification time:	15. 06. 2019 21:05

#	Program:	/corina/corina34_cracker 3.40 0067  02.08.2006

@<TRIPOS>MOLECULE
ASD06300004
 270  269    0    0    0
SMALL
NO_CHARGES


@<TRIPOS>ATOM
   1 C1            -1.0170     4.8976    -9.0759 C.3     
   2 N2           -53.9995    -2.9989    -7.1059 N.am    
   3 C3           -38.7277    -0.8540   -11.0723 C.3     
   4 C4           -38.5504    -2.3021   -11.5330 C.3     
   5 C5           -39.8538    -2.8159   -12.0881 C.2     
   6 N6           -37.5199    -2.3611   -12.5726 N.am    
   7 O7           -40.0039    -2.9185   -13.2872 O.2     
   8 C8           -39.6842    -0.8120    -9.8788 C.3     
   9 C9           -39.0506    -1.5400    -8.6916 C.3     
  10 C10          -39.9593     0.6437    -9.4967 C.3     
  11 C11          -42.0552    -5.0729   -12.1910 C.3     
  12 C12          -42.1425    -3.5982   -11.7925 C.3     
  13 C13          -43.2115    -3.4234   -10.7449 C.2     
  14 N14          -40.8528    -3.1614   -11.2519 N.am    
  15 O15          -42.9050    -3.3327    -9.5749 O.2     
  16 C16          -43.3765    -5.5080   -12.8281 C.3     
  17 C17          -43.5918    -4.7378   -14.1324 C.3     
  18 C18          -43.3304    -7.0085   -13.1235 C.3     
  19 C19          -45.6783    -1.5807    -9.9170 C.3     
  20 C20          -45.5390    -3.0928   -10.1039 C.3     
  21 C21          -46.8546    -3.6654   -10.5647 C.2     
  22 N22          -44.5082    -3.3678   -11.1080 N.am    
  23 O23          -46.9244    -4.2460   -11.6272 O.2     
  24 C24          -44.3820    -1.0176    -9.3310 C.3     
  25 C25          -44.5214     0.4946    -9.1441 C.3     
  26 C26          -43.2251     1.0576    -8.5582 C.3     
  27 N27          -43.3589     2.5095    -8.3787 N.3     
  28 C28          -49.3134    -5.5645    -9.8477 C.3     
  29 C29          -49.2326    -4.0889   -10.2440 C.3     
  30 C30          -50.3639    -3.3323    -9.5969 C.2     
  31 N31          -47.9536    -3.5323    -9.7961 N.am    
  32 O32          -50.1254    -2.4181    -8.8364 O.2     
  33 C33          -53.9933    -3.0481   -10.1055 C.3     
  34 C34          -52.7406    -2.9360    -9.2342 C.3     
  35 C35          -53.0215    -3.5193    -7.8734 C.2     
  36 N36          -51.6408    -3.6715    -9.8633 N.am    
  37 O37          -52.3673    -4.4571    -7.4688 O.2     
  38 N38          -54.7678    -1.7849   -13.5941 N.pl3   
  39 C39          -55.7592    -1.7550   -14.5461 C.2     
  40 N40          -55.5512    -1.1565   -15.6852 N.2     
  41 N41          -56.9701    -2.3564   -14.2967 N.pl3   
  42 C42          -53.7490    -2.3455   -11.4426 C.3     
  43 C43          -55.0017    -2.4576   -12.3139 C.3     
  44 C44          -35.0768    -3.8555   -13.9799 C.3     
  45 C45          -35.1567    -2.4914   -13.2917 C.3     
  46 C46          -36.2266    -2.5257   -12.2309 C.2     
  47 N47          -33.8656    -2.1801   -12.6733 N.am    
  48 O48          -35.9238    -2.7015   -11.0698 O.2     
  49 C49          -36.3863    -4.1297   -14.7223 C.3     
  50 C50          -33.9157    -3.8570   -14.9762 C.3     
  51 C51          -31.7719    -0.3133   -11.6096 C.3     
  52 C52          -31.5600    -1.2892   -12.7687 C.3     
  53 C53          -32.8881    -1.6094   -13.4049 C.2     
  54 N54          -30.6756    -0.6796   -13.7649 N.am    
  55 O55          -33.0773    -1.3536   -14.5752 O.2     
  56 O56          -32.4712     0.8406   -12.0802 O.3     
  57 C57          -30.4145     0.1087   -11.0436 C.3     
  58 C58           -2.3727     2.0354    -7.1018 C.3     
  59 C59           -2.4533     3.2823    -7.9848 C.3     
  60 C60           -3.5737     4.1675    -7.5029 C.2     
  61 N61           -1.1831     4.0167    -7.9121 N.3     
  62 O62           -3.3410     5.0752    -6.7329 O.2     
  63 C63           -1.3194     1.0791    -7.6647 C.3     
  64 S64           -1.2239    -0.3992    -6.6178 S.3     
  65 C65            0.0553    -1.3944    -7.4326 C.3     
  66 C66           -5.9989     6.0618    -8.3374 C.3     
  67 C67           -5.9234     4.8112    -7.4593 C.3     
  68 C68           -7.2275     4.0604    -7.5412 C.2     
  69 N69           -4.8342     3.9506    -7.9278 N.am    
  70 O70           -7.2453     2.9189    -7.9505 O.2     
  71 C71           -4.7240     6.8886    -8.1581 C.3     
  72 C72           -4.7984     8.1205    -9.0231 C.2     
  73 O73           -5.7712     8.3169    -9.7122 O.2     
  74 O74           -3.7839     8.9994    -9.0279 O.3     
  75 C75           -9.8693     2.9808    -6.1931 C.3     
  76 C76           -9.6542     3.9689    -7.3413 C.3     
  77 C77          -10.7716     4.9800    -7.3498 C.2     
  78 N78           -8.3739     4.6575    -7.1595 N.am    
  79 O79          -10.5685     6.1115    -6.9634 O.2     
  80 C80          -11.1909     2.2383    -6.4002 C.3     
  81 C81          -11.0960     1.3684    -7.6553 C.3     
  82 C82          -11.4736     1.3519    -5.1855 C.3     
  83 C83          -12.9458     6.3560    -9.2328 C.3     
  84 C84          -13.0563     5.6333    -7.8888 C.3     
  85 C85          -14.4005     4.9592    -7.7899 C.2     
  86 N86          -11.9966     4.6269    -7.7869 N.am    
  87 O87          -14.4668     3.7566    -7.6482 O.2     
  88 C88          -11.6344     7.1425    -9.2827 C.3     
  89 C89          -11.5256     7.8543   -10.6066 C.2     
  90 O90          -12.4065     7.7438   -11.4261 O.2     
  91 O91          -10.4500     8.6110   -10.8753 O.3     
  92 C92          -17.8141     6.0750    -7.0755 C.3     
  93 C93          -16.8314     5.0545    -7.6533 C.3     
  94 C94          -17.3543     4.5441    -8.9713 C.2     
  95 N95          -15.5290     5.6929    -7.8588 N.am    
  96 O96          -16.7031     4.6984    -9.9827 O.2     
  97 C97          -17.3412     6.5120    -5.7129 C.2     
  98 N98          -17.9917     7.4931    -5.0565 N.am    
  99 O99          -16.3754     5.9809    -5.2071 O.2     
 100 C100         -18.4743     2.0310   -10.5824 C.3     
 101 C101         -19.0539     3.4200   -10.3073 C.3     
 102 C102         -20.5575     3.3351   -10.2523 C.2     
 103 N103         -18.5456     3.9161    -9.0260 N.am    
 104 O104         -21.1465     3.6573    -9.2422 O.2     
 105 C105         -16.9478     2.1172   -10.6383 C.3     
 106 C106         -18.8905     1.0739    -9.4636 C.3     
 107 C107         -18.4172    -0.3414    -9.8008 C.3     
 108 C108         -23.3102     4.1818   -11.6204 C.3     
 109 C109         -22.7093     2.8185   -11.2720 C.3     
 110 C110         -23.1909     1.7895   -12.2620 C.2     
 111 N111         -21.2476     2.9011   -11.3255 N.am    
 112 O112         -22.4117     1.2922   -13.0472 O.2     
 113 C113         -22.8376     5.2224   -10.6032 C.3     
 114 C114         -22.8569     4.5958   -13.0218 C.3     
 115 C115         -24.7104    -1.0055   -12.4753 C.3     
 116 C116         -24.9344     0.3439   -13.1607 C.3     
 117 C117         -26.4008     0.5169   -13.4622 C.2     
 118 N118         -24.4875     1.4218   -12.2749 N.am    
 119 O119         -27.0123     1.4488   -12.9841 O.2     
 120 C120         -28.6921    -0.7661   -16.0140 C.3     
 121 C121         -28.4286    -0.1363   -14.6448 C.3     
 122 C122         -29.3383    -0.7633   -13.6200 C.2     
 123 N123         -27.0327    -0.3639   -14.2630 N.am    
 124 O124         -28.8670    -1.3433   -12.6648 O.2     
 125 C125         -27.8535    -0.0718   -17.0560 C.2     
 126 N126         -27.8367    -0.5310   -18.3231 N.am    
 127 O127         -27.1937     0.9001   -16.7545 O.2     
 128 H128          -0.1125     5.4936    -8.9544 H       
 129 H129          -0.9356     4.2939    -9.9799 H       
 130 H130          -1.8797     5.5589    -9.1572 H       
 131 H131         -54.5227    -2.2489    -7.4295 H       
 132 H132         -54.1803    -3.3744    -6.2300 H       
 133 H133         -37.7610    -0.4455   -10.7777 H       
 134 H134         -39.1393    -0.2607   -11.8888 H       
 135 H135         -38.2480    -2.9184   -10.6863 H       
 136 H136         -37.7683    -2.2817   -13.5069 H       
 137 H137         -40.6210    -1.3006   -10.1467 H       
 138 H138         -39.7610    -1.5750    -7.8657 H       
 139 H139         -38.7864    -2.5554    -8.9869 H       
 140 H140         -38.1529    -1.0081    -8.3764 H       
 141 H141         -40.4107     1.1623   -10.3425 H       
 142 H142         -40.6407     0.6736    -8.6464 H       
 143 H143         -39.0224     1.1323    -9.2288 H       
 144 H144         -41.2446    -5.2084   -12.9070 H       
 145 H145         -41.8624    -5.6778   -11.3050 H       
 146 H146         -42.3909    -2.9992   -12.6686 H       
 147 H147         -40.7179    -3.1207   -10.2922 H       
 148 H148         -44.1971    -5.2978   -12.1422 H       
 149 H149         -42.8092    -5.0017   -14.8437 H       
 150 H150         -44.5648    -4.9959   -14.5504 H       
 151 H151         -43.5548    -3.6669   -13.9323 H       
 152 H152         -43.1770    -7.5572   -12.1943 H       
 153 H153         -44.2716    -7.3185   -13.5774 H       
 154 H154         -42.5097    -7.2187   -13.8094 H       
 155 H155         -45.8749    -1.1120   -10.8813 H       
 156 H156         -46.5046    -1.3732    -9.2370 H       
 157 H157         -45.2550    -3.5513    -9.1567 H       
 158 H158         -44.7590    -3.5098   -12.0342 H       
 159 H159         -44.1854    -1.4863    -8.3668 H       
 160 H160         -43.5557    -1.2250   -10.0110 H       
 161 H161         -44.7180     0.9633   -10.1084 H       
 162 H162         -45.3477     0.7020    -8.4642 H       
 163 H163         -43.0285     0.5890    -7.5939 H       
 164 H164         -42.3988     0.8502    -9.2382 H       
 165 H165         -42.5149     2.9054    -7.9926 H       
 166 H166         -43.6052     2.9600    -9.2473 H       
 167 H167         -48.4951    -6.1117   -10.3158 H       
 168 H168         -49.2376    -5.6543    -8.7641 H       
 169 H169         -50.2650    -5.9786   -10.1810 H       
 170 H170         -49.3084    -3.9990   -11.3276 H       
 171 H171         -47.8978    -3.0679    -8.9463 H       
 172 H172         -54.2192    -4.0995   -10.2835 H       
 173 H173         -54.8337    -2.5771    -9.5958 H       
 174 H174         -52.4633    -1.8871    -9.1297 H       
 175 H175         -51.8316    -4.4027   -10.4715 H       
 176 H176         -53.9135    -1.3605   -13.7701 H       
 177 H177         -56.2506    -1.1354   -16.3569 H       
 178 H178         -57.1250    -2.8019   -13.4491 H       
 179 H179         -57.6696    -2.3354   -14.9684 H       
 180 H180         -53.5231    -1.2942   -11.2646 H       
 181 H181         -52.9086    -2.8166   -11.9523 H       
 182 H182         -55.8422    -1.9866   -11.8041 H       
 183 H183         -55.2276    -3.5090   -12.4918 H       
 184 H184         -34.9143    -4.6311   -13.2314 H       
 185 H185         -35.4003    -1.7263   -14.0289 H       
 186 H186         -33.7143    -2.3847   -11.7372 H       
 187 H187         -36.3195    -5.0896   -15.2344 H       
 188 H188         -37.2100    -4.1549   -14.0090 H       
 189 H189         -36.5621    -3.3398   -15.4526 H       
 190 H190         -34.0782    -3.0814   -15.7247 H       
 191 H191         -32.9829    -3.6617   -14.4473 H       
 192 H192         -33.8588    -4.8288   -15.4665 H       
 193 H193         -32.3564    -0.7987   -10.8281 H       
 194 H194         -31.1065    -2.2065   -12.3931 H       
 195 H195         -31.0526    -0.2158   -14.5289 H       
 196 H196         -32.6405     1.5037   -11.3971 H       
 197 H197         -29.8810    -0.7715   -10.6846 H       
 198 H198         -29.8299     0.5941   -11.8251 H       
 199 H199         -30.5654     0.8039   -10.2178 H       
 200 H200          -2.0956     2.3253    -6.0882 H       
 201 H201          -3.3428     1.5386    -7.0853 H       
 202 H202          -2.6428     2.9854    -9.0163 H       
 203 H203          -0.4033     3.3825    -7.8244 H       
 204 H204          -1.5965     0.7892    -8.6782 H       
 205 H205          -0.3494     1.5759    -7.6812 H       
 206 H206           0.1998    -2.3230    -6.8806 H       
 207 H207          -0.2562    -1.6223    -8.4520 H       
 208 H208           0.9910    -0.8356    -7.4550 H       
 209 H209          -6.0967     5.7668    -9.3822 H       
 210 H210          -6.8631     6.6588    -8.0460 H       
 211 H211          -5.7367     5.1035    -6.4260 H       
 212 H212          -5.0203     3.2247    -8.5437 H       
 213 H213          -4.6262     7.1836    -7.1134 H       
 214 H214          -3.8598     6.2917    -8.4496 H       
 215 H215          -3.8772     9.7744    -9.5987 H       
 216 H216          -9.0488     2.2634    -6.1726 H       
 217 H217          -9.9014     3.5231    -5.2482 H       
 218 H218          -9.6452     3.4292    -8.2883 H       
 219 H219          -8.3513     5.5431    -6.7645 H       
 220 H220         -11.9986     2.9604    -6.5188 H       
 221 H221         -11.9960     0.7601    -7.7446 H       
 222 H222         -11.0003     2.0069    -8.5335 H       
 223 H223         -10.2240     0.7185    -7.5818 H       
 224 H224         -11.5412     1.9716    -4.2914 H       
 225 H225         -12.4151     0.8229    -5.3330 H       
 226 H226         -10.6658     0.6297    -5.0669 H       
 227 H227         -12.9618     5.6247   -10.0410 H       
 228 H228         -13.7853     7.0418    -9.3467 H       
 229 H229         -12.9512     6.3549    -7.0786 H       
 230 H230         -12.1766     3.7063    -8.0341 H       
 231 H231         -11.6184     7.8738    -8.4746 H       
 232 H232         -10.7949     6.4567    -9.1688 H       
 233 H233         -10.4250     9.0480   -11.7376 H       
 234 H234         -17.8692     6.9405    -7.7358 H       
 235 H235         -18.8010     5.6204    -6.9890 H       
 236 H236         -16.7222     4.2216    -6.9586 H       
 237 H237         -15.4788     6.6436    -8.0446 H       
 238 H238         -18.7642     7.9179    -5.4611 H       
 239 H239         -17.6873     7.7743    -4.1795 H       
 240 H240         -18.8525     1.6618   -11.5358 H       
 241 H241         -18.7574     4.1018   -11.1044 H       
 242 H242         -19.0664     3.7927    -8.2171 H       
 243 H243         -16.5349     1.1276   -10.8343 H       
 244 H244         -16.6513     2.7990   -11.4354 H       
 245 H245         -16.5696     2.4863    -9.6850 H       
 246 H246         -18.4386     1.3941    -8.5248 H       
 247 H247         -19.9760     1.0802    -9.3651 H       
 248 H248         -17.3317    -0.3477    -9.8993 H       
 249 H249         -18.7137    -1.0232    -9.0037 H       
 250 H250         -18.8691    -0.6616   -10.7396 H       
 251 H251         -24.3980     4.1166   -11.5948 H       
 252 H252         -23.0205     2.5302   -10.2679 H       
 253 H253         -20.7765     2.6434   -12.1333 H       
 254 H254         -23.2657     6.1936   -10.8514 H       
 255 H255         -23.1605     4.9274    -9.6048 H       
 256 H256         -21.7498     5.2875   -10.6288 H       
 257 H257         -21.7767     4.7418   -13.0259 H       
 258 H258         -23.1206     3.8145   -13.7346 H       
 259 H259         -23.3504     5.5261   -13.3032 H       
 260 H260         -25.2789    -1.0397   -11.5459 H       
 261 H261         -25.0430    -1.8075   -13.1344 H       
 262 H262         -23.6498    -1.1306   -12.2573 H       
 263 H263         -24.3659     0.3781   -14.0901 H       
 264 H264         -25.1247     1.8708   -11.6977 H       
 265 H265         -28.4313    -1.8240   -15.9836 H       
 266 H266         -29.7471    -0.6590   -16.2662 H       
 267 H267         -28.6215     0.9354   -14.6946 H       
 268 H268         -26.5631    -1.1486   -14.5866 H       
 269 H269         -28.3645    -1.3083   -18.5642 H       
 270 H270         -27.2970    -0.0841   -18.9938 H       
@<TRIPOS>BOND
   1    1   61 1
   2    1  128 1
   3    1  129 1
   4    1  130 1
   5    2   35 am
   6    2  131 1
   7    2  132 1
   8    3    8 1
   9    3    4 1
  10    3  133 1
  11    3  134 1
  12    4    6 1
  13    4    5 1
  14    4  135 1
  15    5    7 2
  16    5   14 am
  17    6   46 am
  18    6  136 1
  19    8    9 1
  20    8   10 1
  21    8  137 1
  22    9  138 1
  23    9  139 1
  24    9  140 1
  25   10  141 1
  26   10  142 1
  27   10  143 1
  28   11   16 1
  29   11   12 1
  30   11  144 1
  31   11  145 1
  32   12   14 1
  33   12   13 1
  34   12  146 1
  35   13   15 2
  36   13   22 am
  37   14  147 1
  38   16   17 1
  39   16   18 1
  40   16  148 1
  41   17  149 1
  42   17  150 1
  43   17  151 1
  44   18  152 1
  45   18  153 1
  46   18  154 1
  47   19   24 1
  48   19   20 1
  49   19  155 1
  50   19  156 1
  51   20   22 1
  52   20   21 1
  53   20  157 1
  54   21   23 2
  55   21   31 am
  56   22  158 1
  57   24   25 1
  58   24  159 1
  59   24  160 1
  60   25   26 1
  61   25  161 1
  62   25  162 1
  63   26   27 1
  64   26  163 1
  65   26  164 1
  66   27  165 1
  67   27  166 1
  68   28   29 1
  69   28  167 1
  70   28  168 1
  71   28  169 1
  72   29   30 1
  73   29   31 1
  74   29  170 1
  75   30   32 2
  76   30   36 am
  77   31  171 1
  78   33   42 1
  79   33   34 1
  80   33  172 1
  81   33  173 1
  82   34   36 1
  83   34   35 1
  84   34  174 1
  85   35   37 2
  86   36  175 1
  87   38   43 1
  88   38   39 1
  89   38  176 1
  90   39   40 2
  91   39   41 1
  92   40  177 1
  93   41  178 1
  94   41  179 1
  95   42   43 1
  96   42  180 1
  97   42  181 1
  98   43  182 1
  99   43  183 1
 100   44   49 1
 101   44   50 1
 102   44   45 1
 103   44  184 1
 104   45   47 1
 105   45   46 1
 106   45  185 1
 107   46   48 2
 108   47   53 am
 109   47  186 1
 110   49  187 1
 111   49  188 1
 112   49  189 1
 113   50  190 1
 114   50  191 1
 115   50  192 1
 116   51   52 1
 117   51   56 1
 118   51   57 1
 119   51  193 1
 120   52   54 1
 121   52   53 1
 122   52  194 1
 123   53   55 2
 124   54  122 am
 125   54  195 1
 126   56  196 1
 127   57  197 1
 128   57  198 1
 129   57  199 1
 130   58   63 1
 131   58   59 1
 132   58  200 1
 133   58  201 1
 134   59   60 1
 135   59   61 1
 136   59  202 1
 137   60   62 2
 138   60   69 am
 139   61  203 1
 140   63   64 1
 141   63  204 1
 142   63  205 1
 143   64   65 1
 144   65  206 1
 145   65  207 1
 146   65  208 1
 147   66   71 1
 148   66   67 1
 149   66  209 1
 150   66  210 1
 151   67   69 1
 152   67   68 1
 153   67  211 1
 154   68   70 2
 155   68   78 am
 156   69  212 1
 157   71   72 1
 158   71  213 1
 159   71  214 1
 160   72   73 2
 161   72   74 1
 162   74  215 1
 163   75   80 1
 164   75   76 1
 165   75  216 1
 166   75  217 1
 167   76   78 1
 168   76   77 1
 169   76  218 1
 170   77   79 2
 171   77   86 am
 172   78  219 1
 173   80   81 1
 174   80   82 1
 175   80  220 1
 176   81  221 1
 177   81  222 1
 178   81  223 1
 179   82  224 1
 180   82  225 1
 181   82  226 1
 182   83   88 1
 183   83   84 1
 184   83  227 1
 185   83  228 1
 186   84   86 1
 187   84   85 1
 188   84  229 1
 189   85   87 2
 190   85   95 am
 191   86  230 1
 192   88   89 1
 193   88  231 1
 194   88  232 1
 195   89   90 2
 196   89   91 1
 197   91  233 1
 198   92   97 1
 199   92   93 1
 200   92  234 1
 201   92  235 1
 202   93   95 1
 203   93   94 1
 204   93  236 1
 205   94   96 2
 206   94  103 am
 207   95  237 1
 208   97   98 am
 209   97   99 2
 210   98  238 1
 211   98  239 1
 212  100  101 1
 213  100  105 1
 214  100  106 1
 215  100  240 1
 216  101  103 1
 217  101  102 1
 218  101  241 1
 219  102  104 2
 220  102  111 am
 221  103  242 1
 222  105  243 1
 223  105  244 1
 224  105  245 1
 225  106  107 1
 226  106  246 1
 227  106  247 1
 228  107  248 1
 229  107  249 1
 230  107  250 1
 231  108  113 1
 232  108  114 1
 233  108  109 1
 234  108  251 1
 235  109  111 1
 236  109  110 1
 237  109  252 1
 238  110  112 2
 239  110  118 am
 240  111  253 1
 241  113  254 1
 242  113  255 1
 243  113  256 1
 244  114  257 1
 245  114  258 1
 246  114  259 1
 247  115  116 1
 248  115  260 1
 249  115  261 1
 250  115  262 1
 251  116  117 1
 252  116  118 1
 253  116  263 1
 254  117  119 2
 255  117  123 am
 256  118  264 1
 257  120  125 1
 258  120  121 1
 259  120  265 1
 260  120  266 1
 261  121  123 1
 262  121  122 1
 263  121  267 1
 264  122  124 2
 265  123  268 1
 266  125  126 am
 267  125  127 2
 268  126  269 1
 269  126  270 1

#	End of record

