#	Name: ASD00170411
#	Creating user name:	WinNT
#	Creation time:	15. 06. 2019 18:32

#	Modifying user name:	WinNT
#	Modification time:	15. 06. 2019 18:32

#	Program:	/corina/corina34_cracker 3.40 0067  02.08.2006

@<TRIPOS>MOLECULE
ASD00170411
  71   75    0    0    0
SMALL
NO_CHARGES


@<TRIPOS>ATOM
   1 C1            -0.6612     0.8209    -0.2326 C.2     
   2 C2            -0.7896    -0.4815     0.2036 C.2     
   3 C3            -2.0673    -1.0124     0.0122 C.2     
   4 C4            -2.9284    -0.1568    -0.5592 C.2     
   5 S5            -2.1394     1.3803    -0.8744 S.3     
   6 C6            -2.4436    -2.4163     0.4103 C.3     
   7 C7            -4.3371    -0.4615    -0.8726 C.ar    
   8 C8            -5.3453     0.4342    -0.5020 C.ar    
   9 C9            -6.6495     0.1523    -0.7921 C.ar    
  10 C10           -6.9771    -1.0322    -1.4602 C.ar    
  11 C11           -5.9684    -1.9278    -1.8312 C.ar    
  12 C12           -4.6639    -1.6433    -1.5453 C.ar    
  13 N13            0.4948     1.5658    -0.1555 N.pl3   
  14 C14            0.3094    -1.2360     0.8094 C.2     
  15 C15            1.1860    -2.0733    -0.0371 C.ar    
  16 O16            0.5013    -1.1738     2.0101 O.2     
  17 C17            2.2994    -2.7067     0.5184 C.ar    
  18 C18            3.1131    -3.4867    -0.2760 C.ar    
  19 C19            2.8278    -3.6422    -1.6225 C.ar    
  20 C20            1.7247    -3.0164    -2.1792 C.ar    
  21 C21            0.9004    -2.2385    -1.3938 C.ar    
  22 Cl22           3.8574    -4.6250    -2.6164 Cl      
  23 N23           -2.2256    -2.5915     1.8524 N.3     
  24 C24           -3.3291    -2.0075     2.6264 C.3     
  25 C25           -3.2493    -0.4812     2.5567 C.3     
  26 C26           -4.3986     0.1270     3.3629 C.3     
  27 C27           -5.7338    -0.3410     2.7804 C.3     
  28 C28           -5.8136    -1.8673     2.8502 C.3     
  29 C29           -4.6643    -2.4755     2.0440 C.3     
  30 C30           -2.0396    -4.0094     2.1882 C.3     
  31 C31           -0.7703    -4.5314     1.5120 C.3     
  32 C32           -0.5765    -6.0083     1.8618 C.3     
  33 C33           -0.4456    -6.1602     3.3786 C.3     
  34 C34           -1.7149    -5.6382     4.0548 C.3     
  35 C35           -1.9087    -4.1614     3.7050 C.3     
  36 C36           -8.3448    -1.3283    -1.7641 C.1     
  37 N37           -9.4298    -1.5631    -2.0051 N.1     
  38 H38           -3.4942    -2.5906     0.1778 H       
  39 H39           -1.8271    -3.1274    -0.1395 H       
  40 H40           -5.0924     1.3487     0.0138 H       
  41 H41           -7.4281     0.8437    -0.5053 H       
  42 H42           -6.2212    -2.8425    -2.3467 H       
  43 H43           -3.8852    -2.3346    -1.8317 H       
  44 H44            1.2751     1.2052     0.2939 H       
  45 H45            0.5286     2.4511    -0.5505 H       
  46 H46            2.5232    -2.5856     1.5680 H       
  47 H47            3.9746    -3.9772     0.1526 H       
  48 H48            1.5073    -3.1413    -3.2297 H       
  49 H49            0.0403    -1.7513    -1.8288 H       
  50 H50           -3.2537    -2.3282     3.6655 H       
  51 H51           -2.2981    -0.1478     2.9717 H       
  52 H52           -3.3247    -0.1605     1.5177 H       
  53 H53           -4.3232    -0.1937     4.4019 H       
  54 H54           -4.3417     1.2144     3.3132 H       
  55 H55           -6.5526     0.0923     3.3548 H       
  56 H56           -5.8092    -0.0203     1.7414 H       
  57 H57           -5.7382    -2.1880     3.8892 H       
  58 H58           -6.7648    -2.2007     2.4352 H       
  59 H59           -4.7397    -2.1549     1.0049 H       
  60 H60           -4.7212    -3.5629     2.0936 H       
  61 H61           -2.8990    -4.5814     1.8386 H       
  62 H62           -0.8635    -4.4232     0.4314 H       
  63 H63            0.0892    -3.9595     1.8616 H       
  64 H64           -1.4360    -6.5803     1.5121 H       
  65 H65            0.3278    -6.3801     1.3800 H       
  66 H66           -0.3076    -7.2123     3.6278 H       
  67 H67            0.4139    -5.5882     3.7282 H       
  68 H68           -2.5744    -6.2102     3.7052 H       
  69 H69           -1.6217    -5.7464     5.1354 H       
  70 H70           -1.0492    -3.5894     4.0547 H       
  71 H71           -2.8129    -3.7895     4.1868 H       
@<TRIPOS>BOND
   1    1    2 2
   2    1   13 1
   3    1    5 1
   4    2    3 1
   5    2   14 1
   6    3    4 2
   7    3    6 1
   8    4    5 1
   9    4    7 1
  10    6   23 1
  11    6   38 1
  12    6   39 1
  13    7    8 ar
  14    7   12 ar
  15    8    9 ar
  16    8   40 1
  17    9   10 ar
  18    9   41 1
  19   10   11 ar
  20   10   36 1
  21   11   12 ar
  22   11   42 1
  23   12   43 1
  24   13   44 1
  25   13   45 1
  26   14   15 1
  27   14   16 2
  28   15   17 ar
  29   15   21 ar
  30   17   18 ar
  31   17   46 1
  32   18   19 ar
  33   18   47 1
  34   19   20 ar
  35   19   22 1
  36   20   21 ar
  37   20   48 1
  38   21   49 1
  39   23   24 1
  40   23   30 1
  41   24   25 1
  42   24   29 1
  43   24   50 1
  44   25   26 1
  45   25   51 1
  46   25   52 1
  47   26   27 1
  48   26   53 1
  49   26   54 1
  50   27   28 1
  51   27   55 1
  52   27   56 1
  53   28   29 1
  54   28   57 1
  55   28   58 1
  56   29   59 1
  57   29   60 1
  58   30   31 1
  59   30   35 1
  60   30   61 1
  61   31   32 1
  62   31   62 1
  63   31   63 1
  64   32   33 1
  65   32   64 1
  66   32   65 1
  67   33   34 1
  68   33   66 1
  69   33   67 1
  70   34   35 1
  71   34   68 1
  72   34   69 1
  73   35   70 1
  74   35   71 1
  75   36   37 3

#	End of record

