#	Name: ASD01913429
#	Creating user name:	WinNT
#	Creation time:	15. 06. 2019 20:01

#	Modifying user name:	WinNT
#	Modification time:	15. 06. 2019 20:01

#	Program:	/corina/corina34_cracker 3.40 0067  02.08.2006

@<TRIPOS>MOLECULE
ASD01913429
  35   37    0    0    0
SMALL
NO_CHARGES


@<TRIPOS>ATOM
   1 C1             0.9809     0.0079    -1.1337 C.ar    
   2 C2             0.1010     0.0054    -0.0562 C.ar    
   3 C3             0.4372     0.7117     1.0899 C.ar    
   4 N4             1.5726     1.3774     1.1609 N.ar    
   5 C5             2.4284     1.4001     0.1577 C.ar    
   6 C6             2.1637     0.7204    -1.0163 C.ar    
   7 C7            -1.0154    -2.0324    -0.1994 C.ar    
   8 N8             0.1593    -2.6351    -0.2941 N.ar    
   9 C9             0.2639    -3.9495    -0.3635 C.ar    
  10 C10           -0.8568    -4.7511    -0.3400 C.ar    
  11 C11           -2.1164    -4.1578    -0.2410 C.ar    
  12 C12           -2.1892    -2.7701    -0.1695 C.ar    
  13 N13           -3.2733    -4.9366    -0.2149 N.am    
  14 C14           -4.3277    -4.5522     0.5313 C.2     
  15 O15           -1.0713    -0.6788    -0.1252 O.3     
  16 C16           -5.5185    -5.4221     0.6317 C.ar    
  17 C17           -6.6121    -5.0269     1.4037 C.ar    
  18 C18           -7.7209    -5.8432     1.4936 C.ar    
  19 C19           -7.7506    -7.0516     0.8212 C.ar    
  20 C20           -6.6692    -7.4503     0.0533 C.ar    
  21 C21           -5.5564    -6.6398    -0.0499 C.ar    
  22 O22           -4.2994    -3.4901     1.1219 O.2     
  23 Cl23          -6.7158    -8.9690    -0.7865 Cl      
  24 H24            0.7499    -0.5357    -2.0379 H       
  25 H25           -0.2386     0.7165     1.9324 H       
  26 H26            3.3484     1.9574     0.2548 H       
  27 H27            2.8702     0.7446    -1.8328 H       
  28 H28            1.2413    -4.4027    -0.4399 H       
  29 H29           -0.7617    -5.8253    -0.3980 H       
  30 H30           -3.1458    -2.2749    -0.0918 H       
  31 H31           -3.3189    -5.7548    -0.7338 H       
  32 H32           -6.5903    -4.0841     1.9300 H       
  33 H33           -8.5674    -5.5381     2.0908 H       
  34 H34           -8.6207    -7.6870     0.8955 H       
  35 H35           -4.7134    -6.9514    -0.6489 H       
@<TRIPOS>BOND
   1    1    2 ar
   2    1    6 ar
   3    1   24 1
   4    2    3 ar
   5    2   15 1
   6    3    4 ar
   7    3   25 1
   8    4    5 ar
   9    5    6 ar
  10    5   26 1
  11    6   27 1
  12    7    8 ar
  13    7   12 ar
  14    7   15 1
  15    8    9 ar
  16    9   10 ar
  17    9   28 1
  18   10   11 ar
  19   10   29 1
  20   11   12 ar
  21   11   13 1
  22   12   30 1
  23   13   14 am
  24   13   31 1
  25   14   16 1
  26   14   22 2
  27   16   17 ar
  28   16   21 ar
  29   17   18 ar
  30   17   32 1
  31   18   19 ar
  32   18   33 1
  33   19   20 ar
  34   19   34 1
  35   20   21 ar
  36   20   23 1
  37   21   35 1

#	End of record

