#	Name: ASD02038779
#	Creating user name:	WinNT
#	Creation time:	15. 06. 2019 20:17

#	Modifying user name:	WinNT
#	Modification time:	15. 06. 2019 20:17

#	Program:	/corina/corina34_cracker 3.40 0067  02.08.2006

@<TRIPOS>MOLECULE
ASD02038779
  44   46    0    0    0
SMALL
NO_CHARGES


@<TRIPOS>ATOM
   1 C1             0.0332     1.3263    -0.8024 C.2     
   2 C2             0.0146    -0.1255    -0.5524 C.2     
   3 N3             1.1663    -0.8255    -0.5604 N.am    
   4 C4             1.1648    -2.2426    -0.1889 C.3     
   5 O5             1.1563    -3.0450    -1.3713 O.3     
   6 C6             2.4197    -0.1693    -0.9407 C.3     
   7 O7            -1.0401    -0.6923    -0.3387 O.2     
   8 N8             1.1371     2.1120    -0.8864 N.2     
   9 C9             0.7647     3.3380    -1.1157 C.2     
  10 N10           -0.5912     3.3825    -1.1870 N.pl3   
  11 C11           -1.0554     2.1249    -0.9975 C.2     
  12 C12            2.3582    -3.3009    -1.9521 C.ar    
  13 C13            2.4206    -4.0498    -3.1179 C.ar    
  14 C14            2.2354     0.5504    -2.2803 C.3     
  15 C15            3.5247     1.2978    -2.6307 C.3     
  16 O16            3.8432     2.2136    -1.5810 O.3     
  17 C17            4.0730     1.5926    -0.3146 C.3     
  18 C18            2.8057     0.8571     0.1289 C.3     
  19 C19           -1.4048     4.5760    -1.4314 C.3     
  20 C20            3.6432    -4.3092    -3.7073 C.ar    
  21 C21            4.8050    -3.8231    -3.1355 C.ar    
  22 C22            4.7453    -3.0751    -1.9714 C.ar    
  23 C23            3.5234    -2.8085    -1.3826 C.ar    
  24 Cl24           6.2049    -2.4660    -1.2555 Cl      
  25 Cl25           6.3397    -4.1515    -3.8775 Cl      
  26 H26            2.0574    -2.4660     0.3954 H       
  27 H27            0.2775    -2.4615     0.4052 H       
  28 H28            3.2086    -0.9157    -1.0332 H       
  29 H29            1.4267     4.1836    -1.2305 H       
  30 H30           -2.0899     1.8147    -0.9941 H       
  31 H31            1.5140    -4.4303    -3.5646 H       
  32 H32            2.0147    -0.1799    -3.0587 H       
  33 H33            1.4124     1.2607    -2.2020 H       
  34 H34            4.3389     0.5826    -2.7487 H       
  35 H35            3.3851     1.8466    -3.5621 H       
  36 H36            4.8943     0.8813    -0.4023 H       
  37 H37            4.3283     2.3539     0.4225 H       
  38 H38            1.9943     1.5736     0.2558 H       
  39 H39            2.9928     0.3461     1.0733 H       
  40 H40           -1.5595     4.6970    -2.5035 H       
  41 H41           -2.3691     4.4662    -0.9352 H       
  42 H42           -0.8911     5.4528    -1.0372 H       
  43 H43            3.6916    -4.8923    -4.6151 H       
  44 H44            3.4767    -2.2249    -0.4750 H       
@<TRIPOS>BOND
   1    1    2 1
   2    1    8 1
   3    1   11 2
   4    2    3 am
   5    2    7 2
   6    3    4 1
   7    3    6 1
   8    4    5 1
   9    4   26 1
  10    4   27 1
  11    5   12 1
  12    6   14 1
  13    6   18 1
  14    6   28 1
  15    8    9 2
  16    9   10 1
  17    9   29 1
  18   10   11 1
  19   10   19 1
  20   11   30 1
  21   12   13 ar
  22   12   23 ar
  23   13   20 ar
  24   13   31 1
  25   14   15 1
  26   14   32 1
  27   14   33 1
  28   15   16 1
  29   15   34 1
  30   15   35 1
  31   16   17 1
  32   17   18 1
  33   17   36 1
  34   17   37 1
  35   18   38 1
  36   18   39 1
  37   19   40 1
  38   19   41 1
  39   19   42 1
  40   20   21 ar
  41   20   43 1
  42   21   22 ar
  43   21   25 1
  44   22   23 ar
  45   22   24 1
  46   23   44 1

#	End of record

