#	Name: ASD03331500
#	Creating user name:	WinNT
#	Creation time:	15. 06. 2019 20:39

#	Modifying user name:	WinNT
#	Modification time:	15. 06. 2019 20:39

#	Program:	/corina/corina34_cracker 3.40 0067  02.08.2006

@<TRIPOS>MOLECULE
ASD03331500
  86   90    0    0    0
SMALL
NO_CHARGES


@<TRIPOS>ATOM
   1 C1             0.5363     1.6290    -2.2378 C.ar    
   2 C2             0.6747     0.2891    -2.5344 C.ar    
   3 C3             1.5695    -0.4923    -1.8225 C.ar    
   4 C4             2.3305     0.0653    -0.8095 C.ar    
   5 C5             2.2010     1.4055    -0.5031 C.ar    
   6 C6             1.3002     2.1978    -1.2178 C.ar    
   7 C7             1.1567     3.6339    -0.8954 C.2     
   8 Cl8            3.1553     2.1036     0.7679 Cl      
   9 C9             2.1738     4.5240    -0.7689 C.2     
  10 N10           -0.0301     4.2942    -0.6790 N.pl3   
  11 C11            0.2297     5.5973    -0.4102 C.2     
  12 C12           -1.3043     3.7130    -0.7289 C.ar    
  13 C13           -1.6678     2.7529     0.2059 C.ar    
  14 C14           -2.9241     2.1815     0.1546 C.ar    
  15 C15           -3.8203     2.5649    -0.8278 C.ar    
  16 C16           -3.4602     3.5213    -1.7609 C.ar    
  17 C17           -2.2074     4.1004    -1.7098 C.ar    
  18 C18            1.5950     5.7815    -0.4566 C.2     
  19 C19            2.3165     7.0454    -0.2290 C.2     
  20 N20            3.3417     7.3903    -1.0330 N.am    
  21 C21            3.6777     6.5759    -2.2088 C.3     
  22 C22            3.7074     7.4818    -3.4439 C.3     
  23 C23            4.6655     8.6485    -3.1928 C.3     
  24 C24            4.1688     9.4715    -2.0020 C.3     
  25 C25            4.1407     8.5913    -0.7538 C.3     
  26 C26            6.0418     8.1125    -2.8935 C.2     
  27 O27            1.9870     7.7777     0.6845 O.2     
  28 N28            7.1225     8.9008    -3.0581 N.am    
  29 O29            6.1769     6.9717    -2.5045 O.2     
  30 Cl30           1.7372    -2.1780    -2.2018 Cl      
  31 Cl31          -5.3985     1.8445    -0.8900 Cl      
  32 C32           -0.7965     6.6610    -0.1160 C.3     
  33 C33           -1.0588     6.7138     1.3904 C.3     
  34 C34           -2.1007     7.7937     1.6891 C.3     
  35 N35            4.7219     9.5012    -4.3877 N.3     
  36 C36            3.3702     9.9998    -4.7501 C.3     
  37 N37           -2.3518     7.8443     3.1315 N.am    
  38 C38            5.1551     8.7234    -5.5769 C.3     
  39 C39            4.6599     9.5494    -6.7835 C.3     
  40 C40            3.4857    10.3891    -6.2396 C.3     
  41 C41            2.1941    10.0401    -6.9818 C.3     
  42 C42            3.7918    11.8820    -6.3764 C.3     
  43 S43           -3.1394     9.1438     3.7898 S.o2    
  44 O44           -3.1780     8.8618     5.1820 O.2     
  45 O45           -2.4336    10.2713     3.2900 O.2     
  46 C46           -4.8067     9.0703     3.0789 C.3     
  47 H47           -0.1587     2.2379    -2.7969 H       
  48 H48            0.0836    -0.1519    -3.3234 H       
  49 H49            3.0264    -0.5490    -0.2575 H       
  50 H50            3.2270     4.3141    -0.8841 H       
  51 H51           -0.9685     2.4528     0.9723 H       
  52 H52           -3.2073     1.4347     0.8815 H       
  53 H53           -4.1612     3.8186    -2.5269 H       
  54 H54           -1.9270     4.8470    -2.4380 H       
  55 H55            4.6565     6.1175    -2.0682 H       
  56 H56            2.9243     5.7997    -2.3431 H       
  57 H57            4.0490     6.9097    -4.3065 H       
  58 H58            2.7064     7.8679    -3.6361 H       
  59 H59            4.8387    10.3156    -1.8384 H       
  60 H60            3.1634     9.8389    -2.2078 H       
  61 H61            3.6950     9.1441     0.0732 H       
  62 H62            5.1566     8.2951    -0.4926 H       
  63 H63            7.0101     9.8340    -3.2975 H       
  64 H64            8.0127     8.5349    -2.9371 H       
  65 H65           -0.4245     7.6282    -0.4542 H       
  66 H66           -1.7238     6.4256    -0.6383 H       
  67 H67           -1.4308     5.7467     1.7286 H       
  68 H68           -0.1315     6.9492     1.9127 H       
  69 H69           -1.7287     8.7609     1.3510 H       
  70 H70           -3.0280     7.5583     1.1669 H       
  71 H71            2.6272     9.2132    -4.6194 H       
  72 H72            3.1125    10.8713    -4.1483 H       
  73 H73           -2.0568     7.1166     3.7010 H       
  74 H74            6.2412     8.6338    -5.5976 H       
  75 H75            4.6913     7.7370    -5.5755 H       
  76 H76            5.4543    10.2008    -7.1479 H       
  77 H77            4.3161     8.8886    -7.5792 H       
  78 H78            1.9834     8.9772    -6.8641 H       
  79 H79            1.3697    10.6218    -6.5696 H       
  80 H80            2.3093    10.2726    -8.0404 H       
  81 H81            3.9214    12.1312    -7.4296 H       
  82 H82            2.9654    12.4615    -5.9650 H       
  83 H83            4.7066    12.1167    -5.8323 H       
  84 H84           -5.2778     8.1267     3.3543 H       
  85 H85           -5.4020     9.8990     3.4621 H       
  86 H86           -4.7422     9.1408     1.9931 H       
@<TRIPOS>BOND
   1    1    2 ar
   2    1    6 ar
   3    1   47 1
   4    2    3 ar
   5    2   48 1
   6    3    4 ar
   7    3   30 1
   8    4    5 ar
   9    4   49 1
  10    5    6 ar
  11    5    8 1
  12    6    7 1
  13    7   10 1
  14    7    9 2
  15    9   18 1
  16    9   50 1
  17   10   11 1
  18   10   12 1
  19   11   18 2
  20   11   32 1
  21   12   13 ar
  22   12   17 ar
  23   13   14 ar
  24   13   51 1
  25   14   15 ar
  26   14   52 1
  27   15   16 ar
  28   15   31 1
  29   16   17 ar
  30   16   53 1
  31   17   54 1
  32   18   19 1
  33   19   20 am
  34   19   27 2
  35   20   21 1
  36   20   25 1
  37   21   22 1
  38   21   55 1
  39   21   56 1
  40   22   23 1
  41   22   57 1
  42   22   58 1
  43   23   24 1
  44   23   26 1
  45   23   35 1
  46   24   25 1
  47   24   59 1
  48   24   60 1
  49   25   61 1
  50   25   62 1
  51   26   28 am
  52   26   29 2
  53   28   63 1
  54   28   64 1
  55   32   33 1
  56   32   65 1
  57   32   66 1
  58   33   34 1
  59   33   67 1
  60   33   68 1
  61   34   37 1
  62   34   69 1
  63   34   70 1
  64   35   38 1
  65   35   36 1
  66   36   40 1
  67   36   71 1
  68   36   72 1
  69   37   43 am
  70   37   73 1
  71   38   39 1
  72   38   74 1
  73   38   75 1
  74   39   40 1
  75   39   76 1
  76   39   77 1
  77   40   41 1
  78   40   42 1
  79   41   78 1
  80   41   79 1
  81   41   80 1
  82   42   81 1
  83   42   82 1
  84   42   83 1
  85   43   44 2
  86   43   45 2
  87   43   46 1
  88   46   84 1
  89   46   85 1
  90   46   86 1

#	End of record

