#	Name: ASD01882623
#	Creating user name:	WinNT
#	Creation time:	15. 06. 2019 19:44

#	Modifying user name:	WinNT
#	Modification time:	15. 06. 2019 19:44

#	Program:	/corina/corina34_cracker 3.40 0067  02.08.2006

@<TRIPOS>MOLECULE
ASD01882623
  50   53    0    0    0
SMALL
NO_CHARGES


@<TRIPOS>ATOM
   1 C1             0.7178     1.4942     1.0695 C.2     
   2 C2             0.7761     0.0323     1.1178 C.2     
   3 C3             1.2465    -0.6462    -0.0133 C.2     
   4 C4             1.6414     0.0965    -1.1426 C.2     
   5 C5             1.5738     1.4411    -1.1493 C.2     
   6 N6             1.1222     2.1431    -0.0714 N.pl3   
   7 N7             0.4798     3.5838     1.3948 N.2     
   8 N8             0.3345     2.4203     1.9253 N.2     
   9 C9             0.9541     3.4735     0.1826 C.2     
  10 C10            0.3645    -0.6831     2.2879 C.1     
  11 N11            0.0379    -1.2507     3.2162 N.1     
  12 C12            1.2580     4.6072    -0.7627 C.3     
  13 C13            0.0162     4.9198    -1.6001 C.3     
  14 F14           -1.0361     5.2870    -0.7545 F       
  15 F15            0.2982     5.9722    -2.4776 F       
  16 F16           -0.3491     3.7860    -2.3337 F       
  17 N17            1.3225    -2.0264    -0.0210 N.pl3   
  18 C18            2.6200    -2.7040    -0.1472 C.3     
  19 C19            2.5474    -3.6951    -1.3131 C.3     
  20 C20            1.3627    -4.6404    -1.1007 C.3     
  21 C21            0.0628    -3.8332    -1.0712 C.3     
  22 C22            0.1078    -2.8437     0.1030 C.3     
  23 C23            1.3084    -5.6385    -2.2285 C.ar    
  24 C24            1.1578    -5.2022    -3.5331 C.ar    
  25 C25            1.1075    -6.1200    -4.5688 C.ar    
  26 C26            1.2075    -7.4727    -4.3015 C.ar    
  27 C27            1.3584    -7.9121    -3.0006 C.ar    
  28 C28            1.4149    -6.9949    -1.9607 C.ar    
  29 O29            1.5685    -7.4258    -0.6810 O.3     
  30 C30            1.6716    -8.8367    -0.4795 C.3     
  31 F31            1.0595    -3.8807    -3.7963 F       
  32 H32            2.0050    -0.4212    -2.0179 H       
  33 H33            1.8858     1.9783    -2.0327 H       
  34 H34            1.5425     5.4905    -0.1911 H       
  35 H35            2.0778     4.3211    -1.4215 H       
  36 H36            3.3995    -1.9673    -0.3419 H       
  37 H37            2.8434    -3.2404     0.7750 H       
  38 H38            2.4142    -3.1490    -2.2470 H       
  39 H39            3.4705    -4.2729    -1.3574 H       
  40 H40            1.4841    -5.1679    -0.1547 H       
  41 H41           -0.0470    -3.2859    -2.0074 H       
  42 H42           -0.7825    -4.5094    -0.9433 H       
  43 H43            0.1305    -3.3912     1.0453 H       
  44 H44           -0.7708    -2.1993     0.0736 H       
  45 H45            0.9896    -5.7787    -5.5866 H       
  46 H46            1.1673    -8.1868    -5.1107 H       
  47 H47            1.4360    -8.9691    -2.7932 H       
  48 H48            0.7675    -9.3231    -0.8458 H       
  49 H49            2.5356    -9.2192    -1.0230 H       
  50 H50            1.7904    -9.0442     0.5839 H       
@<TRIPOS>BOND
   1    1    2 1
   2    1    6 1
   3    1    8 2
   4    2    3 2
   5    2   10 1
   6    3    4 1
   7    3   17 1
   8    4    5 2
   9    4   32 1
  10    5    6 1
  11    5   33 1
  12    6    9 1
  13    7    8 1
  14    7    9 2
  15    9   12 1
  16   10   11 3
  17   12   13 1
  18   12   34 1
  19   12   35 1
  20   13   14 1
  21   13   15 1
  22   13   16 1
  23   17   18 1
  24   17   22 1
  25   18   19 1
  26   18   36 1
  27   18   37 1
  28   19   20 1
  29   19   38 1
  30   19   39 1
  31   20   21 1
  32   20   23 1
  33   20   40 1
  34   21   22 1
  35   21   41 1
  36   21   42 1
  37   22   43 1
  38   22   44 1
  39   23   24 ar
  40   23   28 ar
  41   24   25 ar
  42   24   31 1
  43   25   26 ar
  44   25   45 1
  45   26   27 ar
  46   26   46 1
  47   27   28 ar
  48   27   47 1
  49   28   29 1
  50   29   30 1
  51   30   48 1
  52   30   49 1
  53   30   50 1

#	End of record

