#	Name: ASD01881536
#	Creating user name:	WinNT
#	Creation time:	15. 06. 2019 19:42

#	Modifying user name:	WinNT
#	Modification time:	15. 06. 2019 19:42

#	Program:	/corina/corina34_cracker 3.40 0067  02.08.2006

@<TRIPOS>MOLECULE
ASD01881536
  51   54    0    0    0
SMALL
NO_CHARGES


@<TRIPOS>ATOM
   1 O1            -0.0176     1.4488     0.0100 O.3     
   2 C2             0.0021    -0.0041     0.0020 C.3     
   3 C3             1.4983    -0.3618    -0.0142 C.3     
   4 N4             2.1760     0.9458    -0.0137 N.pl3   
   5 C5             1.2451     1.9289     0.0005 C.2     
   6 C6             3.5109     1.2389    -0.0244 C.2     
   7 C7             3.9099     2.5280    -0.0209 C.2     
   8 C8             2.9177     3.5408    -0.0060 C.2     
   9 N9             1.6250     3.1995     0.0041 N.2     
  10 O10            3.2421     4.7184    -0.0018 O.2     
  11 C11           -0.6906    -0.5420    -1.2517 C.3     
  12 O12           -2.0827    -0.2236    -1.2005 O.3     
  13 C13           -2.8479    -0.6329    -2.2459 C.ar    
  14 C14           -4.2085    -0.3558    -2.2584 C.ar    
  15 C15           -4.9882    -0.7690    -3.3175 C.ar    
  16 C16           -4.4083    -1.4669    -4.3782 C.ar    
  17 C17           -3.0403    -1.7435    -4.3619 C.ar    
  18 C18           -2.2663    -1.3223    -3.3017 C.ar    
  19 C19           -5.2406    -1.9121    -5.5152 C.2     
  20 C20            5.3745     2.8826    -0.0321 C.3     
  21 O21            6.1544     1.6853    -0.0456 O.3     
  22 C22            7.5654     1.9109    -0.0570 C.3     
  23 C23           -5.4031    -3.3876    -5.7365 C.3     
  24 C24           -6.5991    -3.6543    -6.6528 C.3     
  25 C25           -6.4755    -2.7543    -7.8885 C.3     
  26 C26           -6.6692    -1.3007    -7.4516 C.3     
  27 C27           -5.7981    -0.9948    -6.2684 C.2     
  28 H28           -0.4743    -0.3969     0.9003 H       
  29 H29            1.7650    -0.9310     0.8763 H       
  30 H30            1.7479    -0.9214    -0.9157 H       
  31 H31            4.2418     0.4438    -0.0354 H       
  32 H32           -0.2459    -0.0861    -2.1363 H       
  33 H33           -0.5668    -1.6239    -1.2993 H       
  34 H34           -4.6566     0.1839    -1.4372 H       
  35 H35           -6.0464    -0.5534    -3.3264 H       
  36 H36           -2.5880    -2.2832    -5.1807 H       
  37 H37           -1.2078    -1.5359    -3.2883 H       
  38 H38            5.5988     3.4724    -0.9208 H       
  39 H39            5.6147     3.4626     0.8590 H       
  40 H40            7.8352     2.4805    -0.9463 H       
  41 H41            7.8511     2.4707     0.8335 H       
  42 H42            8.0864     0.9534    -0.0670 H       
  43 H43           -4.4991    -3.7856    -6.1973 H       
  44 H44           -5.5651    -3.8811    -4.7781 H       
  45 H45           -6.5992    -4.7001    -6.9600 H       
  46 H46           -7.5241    -3.4249    -6.1238 H       
  47 H47           -5.4870    -2.8748    -8.3319 H       
  48 H48           -7.2415    -3.0233    -8.6157 H       
  49 H49           -6.4084    -0.6377    -8.2765 H       
  50 H50           -7.7124    -1.1415    -7.1786 H       
  51 H51           -5.6133     0.0417    -6.0276 H       
@<TRIPOS>BOND
   1    1    2 1
   2    1    5 1
   3    2    3 1
   4    2   11 1
   5    2   28 1
   6    3    4 1
   7    3   29 1
   8    3   30 1
   9    4    5 1
  10    4    6 1
  11    5    9 2
  12    6    7 2
  13    6   31 1
  14    7    8 1
  15    7   20 1
  16    8    9 1
  17    8   10 2
  18   11   12 1
  19   11   32 1
  20   11   33 1
  21   12   13 1
  22   13   14 ar
  23   13   18 ar
  24   14   15 ar
  25   14   34 1
  26   15   16 ar
  27   15   35 1
  28   16   17 ar
  29   16   19 1
  30   17   18 ar
  31   17   36 1
  32   18   37 1
  33   19   23 1
  34   19   27 2
  35   20   21 1
  36   20   38 1
  37   20   39 1
  38   21   22 1
  39   22   40 1
  40   22   41 1
  41   22   42 1
  42   23   24 1
  43   23   43 1
  44   23   44 1
  45   24   25 1
  46   24   45 1
  47   24   46 1
  48   25   26 1
  49   25   47 1
  50   25   48 1
  51   26   27 1
  52   26   49 1
  53   26   50 1
  54   27   51 1

#	End of record

