#	Name: ASD02198233
#	Creating user name:	WinNT
#	Creation time:	15. 06. 2019 20:19

#	Modifying user name:	WinNT
#	Modification time:	15. 06. 2019 20:19

#	Program:	/corina/corina34_cracker 3.40 0067  02.08.2006

@<TRIPOS>MOLECULE
ASD02198233
  52   54    0    0    0
SMALL
NO_CHARGES


@<TRIPOS>ATOM
   1 C1             0.0298     1.2837     0.1454 C.2     
   2 C2             0.0637    -0.0936     0.0898 C.2     
   3 C3            -1.1170    -0.9040     0.0841 C.1     
   4 S4             1.6068     1.9316     0.1356 S.3     
   5 C5             2.3333     0.3346     0.0556 C.2     
   6 C6             1.3505    -0.6259     0.0395 C.2     
   7 C7             3.7174     0.0766     0.0137 C.2     
   8 C8             4.6744     1.1960    -0.1134 C.ar    
   9 O9             4.1263    -1.0704     0.0821 O.2     
  10 N10            1.6127    -1.9860    -0.0198 N.pl3   
  11 N11           -1.1215     2.0342     0.1960 N.pl3   
  12 N12           -2.0536    -1.5468     0.0797 N.1     
  13 C13           -1.0411     3.4959     0.2529 C.3     
  14 C14           -2.3292     4.0999    -0.3100 C.3     
  15 C15            5.9570     1.0856     0.4286 C.ar    
  16 C16           -2.4452     3.7585    -1.7970 C.3     
  17 C17            0.4858     3.4404     2.2298 C.3     
  18 C18           -0.8619     3.9406     1.7059 C.3     
  19 C19            6.8459     2.1307     0.3083 C.ar    
  20 C20            6.4679     3.2945    -0.3510 C.ar    
  21 C21            5.1925     3.4080    -0.8916 C.ar    
  22 C22            4.3002     2.3647    -0.7806 C.ar    
  23 O23            7.3464     4.3227    -0.4668 O.3     
  24 C24            7.3418     5.2776     0.5000 C.ar    
  25 C25            6.5156     5.1423     1.6066 C.ar    
  26 C26            8.1676     6.3868     0.3852 C.ar    
  27 C27            8.1610     7.3560     1.3695 C.ar    
  28 C28            7.3326     7.2216     2.4683 C.ar    
  29 C29            6.5129     6.1145     2.5879 C.ar    
  30 H30            2.5291    -2.3023    -0.0526 H       
  31 H31            0.8797    -2.6213    -0.0286 H       
  32 H32           -1.9867     1.5958     0.1940 H       
  33 H33           -0.1913     3.8364    -0.3387 H       
  34 H34           -3.1864     3.6906     0.2246 H       
  35 H35           -2.3071     5.1826    -0.1865 H       
  36 H36            6.2512     0.1819     0.9417 H       
  37 H37           -1.5880     4.1678    -2.3316 H       
  38 H38           -2.4673     2.6757    -1.9205 H       
  39 H39           -3.3628     4.1887    -2.1980 H       
  40 H40            0.5150     2.3521     2.1767 H       
  41 H41            1.2890     3.8556     1.6210 H       
  42 H42            0.6135     3.7573     3.2649 H       
  43 H43           -0.8911     5.0290     1.7590 H       
  44 H44           -1.6651     3.5255     2.3146 H       
  45 H45            7.8378     2.0460     0.7272 H       
  46 H46            4.9023     4.3138    -1.4032 H       
  47 H47            3.3095     2.4535    -1.2012 H       
  48 H48            5.8750     4.2779     1.7003 H       
  49 H49            8.8151     6.4921    -0.4727 H       
  50 H50            8.8038     8.2194     1.2808 H       
  51 H51            7.3290     7.9806     3.2367 H       
  52 H52            5.8665     6.0121     3.4470 H       
@<TRIPOS>BOND
   1    1    2 2
   2    1    4 1
   3    1   11 1
   4    2    3 1
   5    2    6 1
   6    3   12 3
   7    4    5 1
   8    5    6 2
   9    5    7 1
  10    6   10 1
  11    7    8 1
  12    7    9 2
  13    8   15 ar
  14    8   22 ar
  15   10   30 1
  16   10   31 1
  17   11   13 1
  18   11   32 1
  19   13   14 1
  20   13   18 1
  21   13   33 1
  22   14   16 1
  23   14   34 1
  24   14   35 1
  25   15   19 ar
  26   15   36 1
  27   16   37 1
  28   16   38 1
  29   16   39 1
  30   17   18 1
  31   17   40 1
  32   17   41 1
  33   17   42 1
  34   18   43 1
  35   18   44 1
  36   19   20 ar
  37   19   45 1
  38   20   21 ar
  39   20   23 1
  40   21   22 ar
  41   21   46 1
  42   22   47 1
  43   23   24 1
  44   24   25 ar
  45   24   26 ar
  46   25   29 ar
  47   25   48 1
  48   26   27 ar
  49   26   49 1
  50   27   28 ar
  51   27   50 1
  52   28   29 ar
  53   28   51 1
  54   29   52 1

#	End of record

