#	Name: ASD02030101
#	Creating user name:	WinNT
#	Creation time:	15. 06. 2019 20:14

#	Modifying user name:	WinNT
#	Modification time:	15. 06. 2019 20:14

#	Program:	/corina/corina34_cracker 3.40 0067  02.08.2006

@<TRIPOS>MOLECULE
ASD02030101
  49   52    0    0    0
SMALL
NO_CHARGES


@<TRIPOS>ATOM
   1 N1            -0.0660     1.2499     0.3984 N.am    
   2 C2            -0.2920    -0.2021     0.4194 C.3     
   3 C3            -1.3400    -0.5195     1.4934 C.3     
   4 N4            -2.4915     0.3739     1.3044 N.am    
   5 C5            -2.2654     1.8259     1.2834 C.3     
   6 C6            -1.2183     2.1435     0.2151 C.3     
   7 C7             1.1750     1.7531     0.5502 C.2     
   8 C8             2.3043     0.8528     0.8659 C.2     
   9 N9             3.5318     1.2246     1.1587 N.2     
  10 N10            2.2563    -0.4913     0.9102 N.2     
  11 C11            3.4549    -0.9132     1.2235 C.2     
  12 N12            4.2419     0.1716     1.3759 N.pl3   
  13 O13            1.3658     2.9474     0.4275 O.2     
  14 C14           -3.7325    -0.1293     1.1527 C.2     
  15 C15           -3.9300    -1.5790     1.0670 C.2     
  16 O16           -4.6893     0.6201     1.0869 O.2     
  17 C17           -0.7682     3.5992     0.3538 C.3     
  18 C18           -1.8176     1.9178    -1.1745 C.3     
  19 C19            5.6021     0.1560     1.7130 C.ar    
  20 C20            6.3013     1.3490     1.8394 C.ar    
  21 C21            7.6417     1.3303     2.1717 C.ar    
  22 C22            8.2877     0.1252     2.3780 C.ar    
  23 C23            7.5941    -1.0646     2.2528 C.ar    
  24 C24            6.2520    -1.0522     1.9268 C.ar    
  25 C25           -5.1075    -2.2134     0.7892 C.2     
  26 C26           -4.8387    -3.5905     0.8083 C.2     
  27 C27           -3.5234    -3.7355     1.0937 C.2     
  28 O28           -2.9790    -2.5203     1.2429 O.3     
  29 Br29          -6.0802    -4.9819     0.4943 Br      
  30 Br30          -2.6046    -5.3810     1.2487 Br      
  31 H31           -0.6555    -0.5299    -0.5545 H       
  32 H32            0.6407    -0.7142     0.6559 H       
  33 H33           -1.6615    -1.5564     1.3957 H       
  34 H34           -0.9106    -0.3587     2.4823 H       
  35 H35           -3.1982     2.3380     1.0470 H       
  36 H36           -1.9020     2.1537     2.2574 H       
  37 H37            3.7580    -1.9430     1.3418 H       
  38 H38           -0.2368     3.7269     1.2969 H       
  39 H39           -0.1065     3.8554    -0.4736 H       
  40 H40           -1.6406     4.2524     0.3370 H       
  41 H41           -2.6806     2.5701    -1.3082 H       
  42 H42           -1.0695     2.1448    -1.9340 H       
  43 H43           -2.1296     0.8779    -1.2711 H       
  44 H44            5.7975     2.2905     1.6778 H       
  45 H45            8.1860     2.2579     2.2702 H       
  46 H46            9.3361     0.1131     2.6371 H       
  47 H47            8.1013    -2.0043     2.4146 H       
  48 H48            5.7108    -1.9818     1.8295 H       
  49 H49           -6.0609    -1.7456     0.5932 H       
@<TRIPOS>BOND
   1    1    2 1
   2    1    7 am
   3    1    6 1
   4    2    3 1
   5    2   31 1
   6    2   32 1
   7    3    4 1
   8    3   33 1
   9    3   34 1
  10    4    5 1
  11    4   14 am
  12    5    6 1
  13    5   35 1
  14    5   36 1
  15    6   17 1
  16    6   18 1
  17    7    8 1
  18    7   13 2
  19    8    9 2
  20    8   10 1
  21    9   12 1
  22   10   11 2
  23   11   12 1
  24   11   37 1
  25   12   19 1
  26   14   15 1
  27   14   16 2
  28   15   25 2
  29   15   28 1
  30   17   38 1
  31   17   39 1
  32   17   40 1
  33   18   41 1
  34   18   42 1
  35   18   43 1
  36   19   20 ar
  37   19   24 ar
  38   20   21 ar
  39   20   44 1
  40   21   22 ar
  41   21   45 1
  42   22   23 ar
  43   22   46 1
  44   23   24 ar
  45   23   47 1
  46   24   48 1
  47   25   26 1
  48   25   49 1
  49   26   27 2
  50   26   29 1
  51   27   28 1
  52   27   30 1

#	End of record

