#	Name: ASD03731040
#	Creating user name:	WinNT
#	Creation time:	15. 06. 2019 20:45

#	Modifying user name:	WinNT
#	Modification time:	15. 06. 2019 20:45

#	Program:	/corina/corina34_cracker 3.40 0067  02.08.2006

@<TRIPOS>MOLECULE
ASD03731040
  51   57    0    0    0
SMALL
NO_CHARGES


@<TRIPOS>ATOM
   1 O1             0.1187     1.3383     0.8325 O.3     
   2 C2             0.1538    -0.0818     1.0677 C.3     
   3 O3             1.4527    -0.4764     0.5884 O.3     
   4 C4             2.2423     0.6301     0.7191 C.ar    
   5 C5             1.4216     1.7457     0.8680 C.ar    
   6 C6             3.6177     0.7777     0.7238 C.ar    
   7 C7             4.1912     2.0366     0.8750 C.ar    
   8 C8             3.3610     3.1446     1.0147 C.ar    
   9 C9             1.9892     3.0000     1.0166 C.ar    
  10 O10            5.5061     2.3953     0.9238 O.3     
  11 C11            4.2628     4.3446     1.1273 C.3     
  12 C12            5.6233     3.8073     0.6628 C.3     
  13 N13            3.6106     6.5352     1.1089 N.am    
  14 C14            3.7935     5.4900     0.2773 C.2     
  15 C15            4.3219     4.8847     2.5253 C.ar    
  16 C16            4.6734     4.3414     3.7409 C.ar    
  17 C17            4.6242     5.1159     4.8862 C.ar    
  18 C18            4.2212     6.4366     4.8071 C.ar    
  19 C19            3.8673     6.9852     3.5920 C.ar    
  20 C20            3.9141     6.2130     2.4339 C.ar    
  21 O21            3.6144     5.4775    -0.9222 O.2     
  22 C22            3.1483     7.8554     0.6736 C.3     
  23 C23            4.9898     8.7704    -0.7123 C.ar    
  24 C24            4.3344     8.7650     0.4819 C.ar    
  25 C25            4.7440     9.5882     1.5284 C.ar    
  26 C26            5.8108    10.4222     1.3881 C.ar    
  27 C27            6.5121    10.4559     0.1711 C.ar    
  28 C28            7.6180    11.3040    -0.0107 C.ar    
  29 C29            8.2732    11.3098    -1.2036 C.ar    
  30 C30            7.8643    10.4860    -2.2509 C.ar    
  31 C31            6.7979     9.6520    -2.1111 C.ar    
  32 C32            6.0963     9.6183    -0.8940 C.ar    
  33 Br33           4.4192     7.6380    -2.1151 Br      
  34 H34            0.0569    -0.2961     2.1320 H       
  35 H35           -0.6316    -0.5831     0.5021 H       
  36 H36            4.2507    -0.0899     0.6097 H       
  37 H37            1.3563     3.8672     1.1338 H       
  38 H38            6.4323     4.2434     1.2488 H       
  39 H39            5.7704     3.9935    -0.4011 H       
  40 H40            4.9874     3.3098     3.8003 H       
  41 H41            4.8994     4.6902     5.8398 H       
  42 H42            4.1831     7.0412     5.7011 H       
  43 H43            3.5529     8.0170     3.5386 H       
  44 H44            2.6084     7.7589    -0.2684 H       
  45 H45            2.4862     8.2762     1.4303 H       
  46 H46            4.2070     9.5646     2.4651 H       
  47 H47            6.1163    11.0552     2.2082 H       
  48 H48            7.9460    11.9480     0.7918 H       
  49 H49            9.1224    11.9627    -1.3408 H       
  50 H50            8.4015    10.5102    -3.1875 H       
  51 H51            6.4923     9.0196    -2.9315 H       
@<TRIPOS>BOND
   1    1    2 1
   2    1    5 1
   3    2    3 1
   4    2   34 1
   5    2   35 1
   6    3    4 1
   7    4    5 ar
   8    4    6 ar
   9    5    9 ar
  10    6    7 ar
  11    6   36 1
  12    7    8 ar
  13    7   10 1
  14    8    9 ar
  15    8   11 1
  16    9   37 1
  17   10   12 1
  18   11   12 1
  19   11   14 1
  20   11   15 1
  21   12   38 1
  22   12   39 1
  23   13   14 am
  24   13   20 1
  25   13   22 1
  26   14   21 2
  27   15   16 ar
  28   15   20 ar
  29   16   17 ar
  30   16   40 1
  31   17   18 ar
  32   17   41 1
  33   18   19 ar
  34   18   42 1
  35   19   20 ar
  36   19   43 1
  37   22   24 1
  38   22   44 1
  39   22   45 1
  40   23   24 ar
  41   23   32 ar
  42   23   33 1
  43   24   25 ar
  44   25   26 ar
  45   25   46 1
  46   26   27 ar
  47   26   47 1
  48   27   28 ar
  49   27   32 ar
  50   28   29 ar
  51   28   48 1
  52   29   30 ar
  53   29   49 1
  54   30   31 ar
  55   30   50 1
  56   31   32 ar
  57   31   51 1

#	End of record

