#	Name: ASD02030640
#	Creating user name:	WinNT
#	Creation time:	15. 06. 2019 20:15

#	Modifying user name:	WinNT
#	Modification time:	15. 06. 2019 20:15

#	Program:	/corina/corina34_cracker 3.40 0067  02.08.2006

@<TRIPOS>MOLECULE
ASD02030640
  67   70    0    0    0
SMALL
NO_CHARGES


@<TRIPOS>ATOM
   1 C1             0.0049     1.3648    -0.0889 C.ar    
   2 C2             0.0006    -0.0137    -0.0728 C.ar    
   3 C3             1.2043    -0.7042    -0.0717 C.ar    
   4 C4             2.3973    -0.0027    -0.0809 C.ar    
   5 C5             2.3994     1.3862    -0.0905 C.ar    
   6 C6             1.2026     2.0675    -0.1036 C.ar    
   7 C7             1.1329     3.5736    -0.1480 C.3     
   8 C8             3.7351     2.0816    -0.0711 C.3     
   9 C9             3.6070     3.5199    -0.5704 C.3     
  10 N10            2.4609     4.1378     0.1152 N.am    
  11 C11            0.6548     4.0205    -1.5309 C.3     
  12 O12            1.5049     3.4592    -2.5332 O.3     
  13 C13            1.2157     3.7604    -3.8273 C.ar    
  14 C14            2.6255     5.1810     0.9525 C.2     
  15 O15            3.7440     5.5728     1.2227 O.2     
  16 C16            1.4457     5.8489     1.5422 C.ar    
  17 C17            0.6268     4.3731    -6.4619 C.ar    
  18 C18           -0.1541     4.8896    -5.4386 C.ar    
  19 C19            0.1396     4.5836    -4.1240 C.ar    
  20 C20            2.0003     3.2490    -4.8503 C.ar    
  21 C21            1.7066     3.5549    -6.1649 C.ar    
  22 C22            1.5056     6.3602     2.8391 C.ar    
  23 C23            0.2691     5.9756     0.8018 C.ar    
  24 C24           -0.8289     6.5996     1.3567 C.ar    
  25 C25           -0.7671     7.1000     2.6449 C.ar    
  26 C26            0.3989     6.9833     3.3842 C.ar    
  27 O27            0.3376     4.6743    -7.7561 O.3     
  28 C28            1.1837     4.1076    -8.7586 C.3     
  29 F29            0.4541     7.4793     4.6397 F       
  30 C30            0.7063     4.5554   -10.1416 C.3     
  31 O31            1.2115    -2.0631    -0.0612 O.3     
  32 C32           -0.0519    -2.7176     0.0704 C.3     
  33 C33           -0.9163    -2.4086    -1.1537 C.3     
  34 C34            0.1648    -4.2287     0.1733 C.3     
  35 C35           -0.7570    -2.2164     1.3323 C.3     
  36 H36           -0.9315     1.9029    -0.0945 H       
  37 H37           -0.9348    -0.5535    -0.0609 H       
  38 H38            3.3344    -0.5397    -0.0802 H       
  39 H39            0.4323     3.9266     0.6088 H       
  40 H40            4.1206     2.0891     0.9484 H       
  41 H41            4.4305     1.5402    -0.7125 H       
  42 H42            4.5173     4.0729    -0.3391 H       
  43 H43            3.4366     3.5226    -1.6470 H       
  44 H44           -0.3682     3.6793    -1.6895 H       
  45 H45            0.6888     5.1082    -1.5932 H       
  46 H46           -0.9950     5.5266    -5.6699 H       
  47 H47           -0.4689     4.9851    -3.3272 H       
  48 H48            2.8412     2.6119    -4.6190 H       
  49 H49            2.3146     3.1527    -6.9617 H       
  50 H50            2.4143     6.2689     3.4156 H       
  51 H51            0.2187     5.5860    -0.2042 H       
  52 H52           -1.7391     6.6980     0.7838 H       
  53 H53           -1.6297     7.5876     3.0744 H       
  54 H54            2.2086     4.4439    -8.6016 H       
  55 H55            1.1443     3.0202    -8.6952 H       
  56 H56           -0.3186     4.2192   -10.2986 H       
  57 H57            0.7457     5.6429   -10.2050 H       
  58 H58            1.3517     4.1232   -10.9063 H       
  59 H59           -0.4586    -2.8454    -2.0413 H       
  60 H60           -1.9109    -2.8315    -1.0123 H       
  61 H61           -0.9951    -1.3288    -1.2795 H       
  62 H62            0.7806    -4.4488     1.0454 H       
  63 H63           -0.7989    -4.7280     0.2737 H       
  64 H64            0.6671    -4.5858    -0.7257 H       
  65 H65           -0.8295    -1.1293     1.3005 H       
  66 H66           -1.7575    -2.6458     1.3844 H       
  67 H67           -0.1864    -2.5170     2.2110 H       
@<TRIPOS>BOND
   1    1    2 ar
   2    1    6 ar
   3    1   36 1
   4    2    3 ar
   5    2   37 1
   6    3    4 ar
   7    3   31 1
   8    4    5 ar
   9    4   38 1
  10    5    6 ar
  11    5    8 1
  12    6    7 1
  13    7   10 1
  14    7   11 1
  15    7   39 1
  16    8    9 1
  17    8   40 1
  18    8   41 1
  19    9   10 1
  20    9   42 1
  21    9   43 1
  22   10   14 am
  23   11   12 1
  24   11   44 1
  25   11   45 1
  26   12   13 1
  27   13   20 ar
  28   13   19 ar
  29   14   15 2
  30   14   16 1
  31   16   23 ar
  32   16   22 ar
  33   17   18 ar
  34   17   21 ar
  35   17   27 1
  36   18   19 ar
  37   18   46 1
  38   19   47 1
  39   20   21 ar
  40   20   48 1
  41   21   49 1
  42   22   26 ar
  43   22   50 1
  44   23   24 ar
  45   23   51 1
  46   24   25 ar
  47   24   52 1
  48   25   26 ar
  49   25   53 1
  50   26   29 1
  51   27   28 1
  52   28   30 1
  53   28   54 1
  54   28   55 1
  55   30   56 1
  56   30   57 1
  57   30   58 1
  58   31   32 1
  59   32   33 1
  60   32   34 1
  61   32   35 1
  62   33   59 1
  63   33   60 1
  64   33   61 1
  65   34   62 1
  66   34   63 1
  67   34   64 1
  68   35   65 1
  69   35   66 1
  70   35   67 1

#	End of record

