#	Name: ASD08830222
#	Creating user name:	WinNT
#	Creation time:	15. 06. 2019 21:20

#	Modifying user name:	WinNT
#	Modification time:	15. 06. 2019 21:20

#	Program:	/corina/corina34_cracker 3.40 0067  02.08.2006

@<TRIPOS>MOLECULE
ASD08830222
  42   43    0    0    0
SMALL
NO_CHARGES


@<TRIPOS>ATOM
   1 C1            -0.1259     1.4879     0.2527 C.ar    
   2 C2            -0.2922     0.0318     0.3872 C.2     
   3 C3            -1.6700    -0.5576     0.5462 C.3     
   4 C4            -1.5686    -2.0832     0.6032 C.3     
   5 N5            -2.9116    -2.6578     0.7582 N.3     
   6 O6             0.6793    -0.6935     0.3702 O.2     
   7 C7             0.1735     2.2677     1.3743 C.ar    
   8 C8            -3.7307    -2.4128    -0.4378 C.3     
   9 C9            -0.2607     2.0981    -0.9985 C.ar    
  10 C10           -0.1034     3.4629    -1.1163 C.ar    
  11 C11            0.1876     4.2285    -0.0006 C.ar    
  12 C12            0.3278     3.6313     1.2401 C.ar    
  13 C13           -2.8384    -4.0961     1.0538 C.3     
  14 C14           -4.2534    -4.6406     1.2661 C.3     
  15 O15           -5.0436    -4.3658     0.1062 O.3     
  16 C16           -5.1368    -2.9743    -0.2105 C.3     
  17 C17            0.3589     5.7193    -0.1386 C.3     
  18 C18            0.3266     1.6196     2.7262 C.3     
  19 C19           -0.5765     1.2661    -2.2147 C.3     
  20 H20           -2.1189    -0.1886     1.4684 H       
  21 H21           -2.2900    -0.2662    -0.3016 H       
  22 H22           -1.1197    -2.4522    -0.3190 H       
  23 H23           -0.9486    -2.3747     1.4511 H       
  24 H24           -3.7925    -1.3405    -0.6232 H       
  25 H25           -3.2765    -2.9059    -1.2972 H       
  26 H26           -0.2071     3.9356    -2.0818 H       
  27 H27            0.5549     4.2355     2.1060 H       
  28 H28           -2.3699    -4.6160     0.2182 H       
  29 H29           -2.2489    -4.2524     1.9572 H       
  30 H30           -4.2084    -5.7174     1.4291 H       
  31 H31           -4.7023    -4.1589     2.1348 H       
  32 H32           -5.6113    -2.4440     0.6152 H       
  33 H33           -5.7306    -2.8459    -1.1155 H       
  34 H34           -0.6045     6.2101     0.0000 H       
  35 H35            1.0602     6.0758     0.6159 H       
  36 H36            0.7448     5.9504    -1.1314 H       
  37 H37            1.3449     1.2472     2.8373 H       
  38 H38            0.1206     2.3527     3.5060 H       
  39 H39           -0.3751     0.7900     2.8129 H       
  40 H40           -1.6571     1.1644    -2.3147 H       
  41 H41           -0.1736     1.7533    -3.1027 H       
  42 H42           -0.1271     0.2790    -2.1064 H       
@<TRIPOS>BOND
   1    1    2 1
   2    1    9 ar
   3    1    7 ar
   4    2    3 1
   5    2    6 2
   6    3    4 1
   7    3   20 1
   8    3   21 1
   9    4    5 1
  10    4   22 1
  11    4   23 1
  12    5   13 1
  13    5    8 1
  14    7   18 1
  15    7   12 ar
  16    8   16 1
  17    8   24 1
  18    8   25 1
  19    9   10 ar
  20    9   19 1
  21   10   11 ar
  22   10   26 1
  23   11   12 ar
  24   11   17 1
  25   12   27 1
  26   13   14 1
  27   13   28 1
  28   13   29 1
  29   14   15 1
  30   14   30 1
  31   14   31 1
  32   15   16 1
  33   16   32 1
  34   16   33 1
  35   17   34 1
  36   17   35 1
  37   17   36 1
  38   18   37 1
  39   18   38 1
  40   18   39 1
  41   19   40 1
  42   19   41 1
  43   19   42 1

#	End of record

