#	Name: ASD00840694
#	Creating user name:	WinNT
#	Creation time:	15. 06. 2019 18:39

#	Modifying user name:	WinNT
#	Modification time:	15. 06. 2019 18:39

#	Program:	/corina/corina34_cracker 3.40 0067  02.08.2006

@<TRIPOS>MOLECULE
ASD00840694
 102  107    0    0    0
SMALL
NO_CHARGES


@<TRIPOS>ATOM
   1 N1             0.9731     1.4230    -0.8287 N.ar    
   2 C2             1.2508     0.1327    -0.9121 C.ar    
   3 C3             1.1955    -0.6775     0.2150 C.ar    
   4 C4             0.8451    -0.1169     1.4306 C.ar    
   5 C5             0.5610     1.2413     1.4760 C.ar    
   6 C6             0.6360     1.9861     0.3162 C.ar    
   7 C7             1.5124    -2.1474     0.1151 C.3     
   8 C8             1.2573    -2.8365     1.4387 C.2     
   9 C9             0.6865    -2.7983    -0.9963 C.3     
  10 C10           -0.7756    -2.5139    -0.7679 C.2     
  11 N11           -1.7023    -3.0495    -1.5870 N.am    
  12 O12           -1.1185    -1.8031     0.1530 O.2     
  13 C13           -3.1201    -2.6892    -1.4503 C.3     
  14 C14           -3.9440    -3.9732    -1.3112 C.3     
  15 C15           -3.6417    -4.8990    -2.4917 C.3     
  16 C16           -2.1579    -5.2736    -2.4815 C.3     
  17 C17           -1.3131    -4.0001    -2.6376 C.3     
  18 C18           -4.4886    -6.1678    -2.3744 C.3     
  19 C19           -5.9736    -5.7947    -2.3862 C.3     
  20 C20           -6.8157    -7.0713    -2.3299 C.3     
  21 N21           -6.4968    -7.9208    -3.4845 N.3     
  22 C22           -5.0868    -8.3307    -3.4689 C.3     
  23 C23           -4.1931    -7.0917    -3.5591 C.3     
  24 C24           -7.3844    -9.0902    -3.5388 C.3     
  25 O25            0.1937    -2.9152     2.0162 O.2     
  26 N26            2.4295    -3.3450     1.8532 N.am    
  27 C27            2.9901    -2.3557    -0.1274 C.ar    
  28 C28            3.4656    -3.0827     0.9614 C.ar    
  29 C29            3.8286    -1.9760    -1.1445 C.ar    
  30 C30            5.1840    -2.3206    -1.0946 C.ar    
  31 C31            5.6692    -3.0513    -0.0033 C.ar    
  32 C32            4.8162    -3.4281     1.0119 C.ar    
  33 F33            6.9761    -3.3889     0.0544 F       
  34 C34            2.3455    -5.8893     2.8991 C.ar    
  35 C35            1.0913    -6.3154     2.4860 C.ar    
  36 C36            3.3806    -6.7972     3.0176 C.ar    
  37 C37            3.1697    -8.1308     2.7249 C.ar    
  38 C38            1.9170    -8.5620     2.3113 C.ar    
  39 C39            0.8770    -7.6534     2.1921 C.ar    
  40 O40            1.7100    -9.8741     2.0240 O.3     
  41 O41            0.0736    -5.4223     2.3701 O.3     
  42 C42            2.8266   -10.7540     2.1694 C.3     
  43 C43           -1.1904    -5.9312     1.9397 C.3     
  44 C44           -2.2037    -4.7870     1.8694 C.3     
  45 C45           -7.1064    -9.8824    -4.8179 C.3     
  46 C46           -7.1292    -9.9811    -2.3215 C.3     
  47 S47            2.6205    -4.1880     3.2658 S.o2    
  48 O48            3.9913    -4.0705     3.6209 O.2     
  49 O49            1.5590    -3.7850     4.1202 O.2     
  50 O50            1.5927    -0.4050    -2.1100 O.3     
  51 C51            2.0535    -0.2867    -4.4794 C.3     
  52 C52            1.5231     0.4538    -3.2500 C.3     
  53 C53            6.0676    -1.9294    -2.1514 C.1     
  54 N54            6.7685    -1.6191    -2.9898 N.1     
  55 H55            0.7935    -0.7221     2.3236 H       
  56 H56            0.2840     1.7100     2.4087 H       
  57 H57            0.4163     3.0431     0.3462 H       
  58 H58            0.9897    -2.3905    -1.9606 H       
  59 H59            0.8526    -3.8756    -0.9890 H       
  60 H60           -3.2559    -2.0700    -0.5637 H       
  61 H61           -3.4447    -2.1409    -2.3347 H       
  62 H62           -3.6818    -4.4744    -0.3794 H       
  63 H63           -5.0054    -3.7256    -1.3055 H       
  64 H64           -3.8808    -4.3880    -3.4244 H       
  65 H65           -1.9126    -5.7626    -1.5387 H       
  66 H66           -1.9481    -5.9516    -3.3088 H       
  67 H67           -1.4915    -3.5612    -3.6192 H       
  68 H68           -0.2567    -4.2471    -2.5320 H       
  69 H69           -4.2492    -6.6806    -1.4428 H       
  70 H70           -6.1991    -5.1716    -1.5208 H       
  71 H71           -6.2039    -5.2468    -3.2998 H       
  72 H72           -6.5950    -7.6118    -1.4094 H       
  73 H73           -7.8736    -6.8098    -2.3526 H       
  74 H74           -4.8742    -8.8652    -2.5431 H       
  75 H75           -4.8890    -8.9838    -4.3188 H       
  76 H76           -4.3953    -6.5641    -4.4913 H       
  77 H77           -3.1465    -7.3951    -3.5318 H       
  78 H78           -8.4227    -8.7586    -3.5352 H       
  79 H79            3.4436    -1.4128    -1.9818 H       
  80 H80            5.1957    -3.9918     1.8513 H       
  81 H81            4.3561    -6.4636     3.3392 H       
  82 H82            3.9805    -8.8383     2.8176 H       
  83 H83           -0.0986    -7.9871     1.8708 H       
  84 H84            2.5257   -11.7688     1.9092 H       
  85 H85            3.6310   -10.4326     1.5078 H       
  86 H86            3.1747   -10.7317     3.2020 H       
  87 H87           -1.0835    -6.3830     0.9536 H       
  88 H88           -1.5396    -6.6828     2.6478 H       
  89 H89           -3.1679    -5.1753     1.5411 H       
  90 H90           -2.3106    -4.3352     2.8555 H       
  91 H91           -1.8545    -4.0355     1.1613 H       
  92 H92           -6.0680   -10.2139    -4.8215 H       
  93 H93           -7.7649   -10.7501    -4.8582 H       
  94 H94           -7.2882    -9.2477    -5.6852 H       
  95 H95           -7.3272    -9.4167    -1.4102 H       
  96 H96           -7.7877   -10.8487    -2.3618 H       
  97 H97           -6.0908   -10.3126    -2.3251 H       
  98 H98            2.0825     0.3948    -5.3296 H       
  99 H99            3.0586    -0.6561    -4.2754 H       
 100 H100           1.3975    -1.1263    -4.7089 H       
 101 H101           0.4874     0.7470    -3.4214 H       
 102 H102           2.1279     1.3430    -3.0725 H       
@<TRIPOS>BOND
   1    1    2 ar
   2    1    6 ar
   3    2    3 ar
   4    2   50 1
   5    3    4 ar
   6    3    7 1
   7    4    5 ar
   8    4   55 1
   9    5    6 ar
  10    5   56 1
  11    6   57 1
  12    7    8 1
  13    7    9 1
  14    7   27 1
  15    8   25 2
  16    8   26 am
  17    9   10 1
  18    9   58 1
  19    9   59 1
  20   10   11 am
  21   10   12 2
  22   11   13 1
  23   11   17 1
  24   13   14 1
  25   13   60 1
  26   13   61 1
  27   14   15 1
  28   14   62 1
  29   14   63 1
  30   15   16 1
  31   15   18 1
  32   15   64 1
  33   16   17 1
  34   16   65 1
  35   16   66 1
  36   17   67 1
  37   17   68 1
  38   18   19 1
  39   18   23 1
  40   18   69 1
  41   19   20 1
  42   19   70 1
  43   19   71 1
  44   20   21 1
  45   20   72 1
  46   20   73 1
  47   21   22 1
  48   21   24 1
  49   22   23 1
  50   22   74 1
  51   22   75 1
  52   23   76 1
  53   23   77 1
  54   24   45 1
  55   24   46 1
  56   24   78 1
  57   26   47 am
  58   26   28 1
  59   27   28 ar
  60   27   29 ar
  61   28   32 ar
  62   29   30 ar
  63   29   79 1
  64   30   31 ar
  65   30   53 1
  66   31   32 ar
  67   31   33 1
  68   32   80 1
  69   34   35 ar
  70   34   36 ar
  71   34   47 1
  72   35   41 1
  73   35   39 ar
  74   36   37 ar
  75   36   81 1
  76   37   38 ar
  77   37   82 1
  78   38   39 ar
  79   38   40 1
  80   39   83 1
  81   40   42 1
  82   41   43 1
  83   42   84 1
  84   42   85 1
  85   42   86 1
  86   43   44 1
  87   43   87 1
  88   43   88 1
  89   44   89 1
  90   44   90 1
  91   44   91 1
  92   45   92 1
  93   45   93 1
  94   45   94 1
  95   46   95 1
  96   46   96 1
  97   46   97 1
  98   47   48 2
  99   47   49 2
 100   50   52 1
 101   51   52 1
 102   51   98 1
 103   51   99 1
 104   51  100 1
 105   52  101 1
 106   52  102 1
 107   53   54 3

#	End of record

