#	Name: ASD08170223
#	Creating user name:	WinNT
#	Creation time:	15. 06. 2019 21:17

#	Modifying user name:	WinNT
#	Modification time:	15. 06. 2019 21:17

#	Program:	/corina/corina34_cracker 3.40 0067  02.08.2006

@<TRIPOS>MOLECULE
ASD08170223
  68   70    0    0    0
SMALL
NO_CHARGES


@<TRIPOS>ATOM
   1 N1            -0.0150     1.2583     0.0090 N.2     
   2 N2             0.0021    -0.0041     0.0020 N.2     
   3 C3             1.1271     1.8769     0.0014 C.2     
   4 S4             2.3826     0.7116    -0.0169 S.3     
   5 C5             1.1681    -0.5677    -0.0121 C.2     
   6 C6             1.4387    -2.0502    -0.0227 C.3     
   7 C7             1.5165    -2.5442    -1.4687 C.3     
   8 C8             1.7912    -4.0493    -1.4794 C.3     
   9 C9             1.8690    -4.5432    -2.9254 C.3     
  10 C10            2.1395    -6.0257    -2.9359 C.2     
  11 N11            1.2478    -6.9651    -2.9329 N.2     
  12 S12            3.7275    -6.7933    -2.9623 S.3     
  13 C13            2.9647    -8.3272    -2.9581 C.2     
  14 N14            1.6777    -8.1521    -2.9433 N.2     
  15 N15            3.6154    -9.5562    -2.9730 N.am    
  16 C16            2.8993   -10.6980    -2.9678 C.2     
  17 O17            1.6874   -10.6536    -2.9501 O.2     
  18 C18            3.6044   -12.0297    -2.9839 C.3     
  19 N19            1.3017     3.2566     0.0067 N.am    
  20 C20            2.5684   -13.1555    -2.9740 C.3     
  21 C21            0.2284     4.0717     0.0214 C.2     
  22 C22            0.4176     5.5667     0.0272 C.3     
  23 O23           -0.8897     3.6019     0.0299 O.2     
  24 C24            3.2677   -14.4831    -3.1138 C.ar    
  25 C25            3.4028   -15.0652    -4.3603 C.ar    
  26 O26            1.8446   -13.1259    -1.7422 O.3     
  27 C27           -0.9494     6.2538     0.0441 C.3     
  28 O28           -1.6187     5.9527     1.2702 O.3     
  29 C29           -0.7638     7.7446    -0.0740 C.ar    
  30 C30           -0.9424     8.3689    -1.2944 C.ar    
  31 C31           -0.7721     9.7364    -1.4027 C.ar    
  32 C32           -0.4237    10.4798    -0.2905 C.ar    
  33 C33           -0.2460     9.8556     0.9301 C.ar    
  34 C34           -0.4205     8.4887     1.0393 C.ar    
  35 C35            3.7792   -15.1160    -1.9964 C.ar    
  36 C36            4.4207   -16.3337    -2.1246 C.ar    
  37 C37            4.5504   -16.9188    -3.3704 C.ar    
  38 C38            4.0443   -16.2829    -4.4886 C.ar    
  39 H39            2.3843    -2.2506     0.4811 H       
  40 H40            0.6334    -2.5702     0.4961 H       
  41 H41            0.5709    -2.3438    -1.9724 H       
  42 H42            2.3218    -2.0242    -1.9874 H       
  43 H43            2.7368    -4.2496    -0.9756 H       
  44 H44            0.9858    -4.5693    -0.9606 H       
  45 H45            0.9234    -4.3429    -3.4291 H       
  46 H46            2.6743    -4.0232    -3.4441 H       
  47 H47            4.5846    -9.5917    -2.9871 H       
  48 H48            4.2156   -12.1064    -3.8831 H       
  49 H49            4.2413   -12.1143    -2.1034 H       
  50 H50            2.1959     3.6323    -0.0001 H       
  51 H51            1.8765   -13.0200    -3.8053 H       
  52 H52            0.9817     5.8582     0.9132 H       
  53 H53            0.9643     5.8672    -0.8667 H       
  54 H54            3.0069   -14.5687    -5.2339 H       
  55 H55            2.3983   -13.2408    -0.9578 H       
  56 H56           -1.5469     5.8945    -0.7938 H       
  57 H57           -1.1429     6.2444     2.0599 H       
  58 H58           -1.2146     7.7881    -2.1633 H       
  59 H59           -0.9109    10.2240    -2.3563 H       
  60 H60           -0.2899    11.5481    -0.3753 H       
  61 H61            0.0266    10.4364     1.7989 H       
  62 H62           -0.2817     8.0011     1.9929 H       
  63 H63            3.6778   -14.6589    -1.0231 H       
  64 H64            4.8208   -16.8279    -1.2517 H       
  65 H65            5.0519   -17.8700    -3.4706 H       
  66 H66            4.1456   -16.7400    -5.4619 H       
  67 H67           10.0519    16.5481     7.0599 H       
  68 H68           10.0519    17.3081     7.0599 H       
@<TRIPOS>BOND
   1    1    2 1
   2    1    3 2
   3    2    5 2
   4    3    4 1
   5    3   19 1
   6    4    5 1
   7    5    6 1
   8    6    7 1
   9    6   39 1
  10    6   40 1
  11    7    8 1
  12    7   41 1
  13    7   42 1
  14    8    9 1
  15    8   43 1
  16    8   44 1
  17    9   10 1
  18    9   45 1
  19    9   46 1
  20   10   11 2
  21   10   12 1
  22   11   14 1
  23   12   13 1
  24   13   14 2
  25   13   15 1
  26   15   16 am
  27   15   47 1
  28   16   17 2
  29   16   18 1
  30   18   20 1
  31   18   48 1
  32   18   49 1
  33   19   21 am
  34   19   50 1
  35   20   24 1
  36   20   26 1
  37   20   51 1
  38   21   22 1
  39   21   23 2
  40   22   27 1
  41   22   52 1
  42   22   53 1
  43   24   25 ar
  44   24   35 ar
  45   25   38 ar
  46   25   54 1
  47   26   55 1
  48   27   28 1
  49   27   29 1
  50   27   56 1
  51   28   57 1
  52   29   30 ar
  53   29   34 ar
  54   30   31 ar
  55   30   58 1
  56   31   32 ar
  57   31   59 1
  58   32   33 ar
  59   32   60 1
  60   33   34 ar
  61   33   61 1
  62   34   62 1
  63   35   36 ar
  64   35   63 1
  65   36   37 ar
  66   36   64 1
  67   37   38 ar
  68   37   65 1
  69   38   66 1
  70   67   68 1

#	End of record

