#	Name: ASD01912923
#	Creating user name:	WinNT
#	Creation time:	15. 06. 2019 20:00

#	Modifying user name:	WinNT
#	Modification time:	15. 06. 2019 20:00

#	Program:	/corina/corina34_cracker 3.40 0067  02.08.2006

@<TRIPOS>MOLECULE
ASD01912923
  44   48    0    0    0
SMALL
NO_CHARGES


@<TRIPOS>ATOM
   1 C1            -0.0165     1.3669     0.0096 C.2     
   2 N2             0.0021    -0.0041     0.0020 N.pl3   
   3 C3            -1.2022    -0.6918     0.0091 C.2     
   4 C4            -2.3630    -0.0493     0.0226 C.2     
   5 N5            -2.4358     1.3307     0.0302 N.am    
   6 C6            -1.3019     2.0667     0.0309 C.2     
   7 C7             1.3016     1.7837    -0.0008 C.2     
   8 C8             2.0550     0.6110    -0.0143 C.2     
   9 N9             1.2243    -0.4045    -0.0118 N.2     
  10 O10           -1.3488     3.2837     0.0376 O.2     
  11 C11           -3.6802     1.9645     0.0433 C.ar    
  12 C12            3.5595     0.5249    -0.0298 C.3     
  13 O13            4.1121     1.8427    -0.0288 O.3     
  14 C14            5.4673     1.9434    -0.0419 C.ar    
  15 C15            6.0713     3.1924    -0.0417 C.ar    
  16 C16            7.4490     3.2921    -0.0551 C.ar    
  17 C17            8.2260     2.1485    -0.0688 C.ar    
  18 C18            7.6265     0.9026    -0.0694 C.ar    
  19 C19            6.2492     0.7975    -0.0498 C.ar    
  20 C20           -4.2861     2.2783     1.2397 C.ar    
  21 C21           -4.3237     2.2936    -1.1704 C.ar    
  22 C22           -5.5851     2.9360    -1.1286 C.ar    
  23 C23           -6.1743     3.2353     0.1103 C.ar    
  24 C24           -5.5282     2.9105     1.2667 C.ar    
  25 F25           -6.1017     3.2018     2.4548 F       
  26 N26           -3.7606     2.0086    -2.3473 N.ar    
  27 C27           -4.3521     2.3115    -3.4775 C.ar    
  28 C28           -5.5932     2.9436    -3.5083 C.ar    
  29 C29           -6.2243     3.2628    -2.3399 C.ar    
  30 H30           -1.1950    -1.7718     0.0032 H       
  31 H31           -3.2785    -0.6221     0.0273 H       
  32 H32            1.6686     2.7994     0.0006 H       
  33 H33            3.9018    -0.0134     0.8540 H       
  34 H34            3.8838    -0.0044    -0.9258 H       
  35 H35            5.4648     4.0860    -0.0314 H       
  36 H36            7.9197     4.2642    -0.0554 H       
  37 H37            9.3030     2.2286    -0.0792 H       
  38 H38            8.2356     0.0108    -0.0808 H       
  39 H39            5.7814    -0.1760    -0.0503 H       
  40 H40           -3.7930     2.0313     2.1683 H       
  41 H41           -7.1362     3.7251     0.1475 H       
  42 H42           -3.8642     2.0649    -4.4089 H       
  43 H43           -6.0557     3.1809    -4.4549 H       
  44 H44           -7.1868     3.7526    -2.3450 H       
@<TRIPOS>BOND
   1    1    2 1
   2    1    7 2
   3    1    6 1
   4    2    3 1
   5    2    9 1
   6    3    4 2
   7    3   30 1
   8    4    5 1
   9    4   31 1
  10    5    6 am
  11    5   11 1
  12    6   10 2
  13    7    8 1
  14    7   32 1
  15    8    9 2
  16    8   12 1
  17   11   21 ar
  18   11   20 ar
  19   12   13 1
  20   12   33 1
  21   12   34 1
  22   13   14 1
  23   14   15 ar
  24   14   19 ar
  25   15   16 ar
  26   15   35 1
  27   16   17 ar
  28   16   36 1
  29   17   18 ar
  30   17   37 1
  31   18   19 ar
  32   18   38 1
  33   19   39 1
  34   20   24 ar
  35   20   40 1
  36   21   22 ar
  37   21   26 ar
  38   22   23 ar
  39   22   29 ar
  40   23   24 ar
  41   23   41 1
  42   24   25 1
  43   26   27 ar
  44   27   28 ar
  45   27   42 1
  46   28   29 ar
  47   28   43 1
  48   29   44 1

#	End of record

