#	Name: ASD07300345
#	Creating user name:	WinNT
#	Creation time:	15. 06. 2019 21:09

#	Modifying user name:	WinNT
#	Modification time:	15. 06. 2019 21:09

#	Program:	/corina/corina34_cracker 3.40 0067  02.08.2006

@<TRIPOS>MOLECULE
ASD07300345
  51   55    0    0    0
SMALL
NO_CHARGES


@<TRIPOS>ATOM
   1 C1            -0.8611     0.9879    -0.1292 C.ar    
   2 C2            -1.0243    -0.3826    -0.3528 C.ar    
   3 C3             0.0598    -1.2324    -0.1934 C.ar    
   4 C4             1.2785    -0.6790     0.1865 C.ar    
   5 C5             1.3663     0.6900     0.3908 C.ar    
   6 N6             0.3160     1.4716     0.2306 N.ar    
   7 C7            -2.9760     0.6145    -0.7005 C.2     
   8 N8            -2.1015     1.5780    -0.3561 N.am    
   9 N9            -2.3541    -0.5798    -0.7127 N.am    
  10 O10           -4.1497     0.7959    -0.9652 O.2     
  11 C11           -2.3910     2.9459    -0.2446 C.ar    
  12 C12           -3.6756     3.4068    -0.4996 C.ar    
  13 C13           -3.9602     4.7534    -0.3892 C.ar    
  14 C14           -2.9627     5.6459    -0.0239 C.ar    
  15 C15           -1.6788     5.1857     0.2310 C.ar    
  16 C16           -1.3946     3.8386     0.1265 C.ar    
  17 O17           -3.2432     6.9718     0.0838 O.3     
  18 C18           -5.0025     8.6872     2.6085 C.ar    
  19 C19           -4.9185     7.3765     3.1114 C.ar    
  20 C20           -5.4929     7.0894     4.3526 C.ar    
  21 C21           -6.1219     8.1155     5.0338 C.ar    
  22 C22           -6.1643     9.3815     4.4740 C.ar    
  23 N23           -5.6159     9.6316     3.3020 N.ar    
  24 C24           -3.9198     7.3910     1.1776 C.2     
  25 N25           -4.3623     8.6656     1.3846 N.pl3   
  26 N26           -4.2428     6.6362     2.1956 N.2     
  27 C27           -4.1904     9.8016     0.4757 C.3     
  28 O28            2.3707    -1.4712     0.3560 O.3     
  29 C29            3.5849    -0.8271     0.7469 C.3     
  30 C30           -2.9732    -1.8667    -1.0395 C.3     
  31 C31           -3.5370    -2.4996     0.2343 C.3     
  32 H32           -0.0392    -2.2949    -0.3594 H       
  33 H33            2.3104     1.1233     0.6862 H       
  34 H34           -4.4519     2.7123    -0.7846 H       
  35 H35           -4.9594     5.1120    -0.5875 H       
  36 H36           -0.9026     5.8809     0.5150 H       
  37 H37           -0.3962     3.4799     0.3292 H       
  38 H38           -5.4470     6.0936     4.7682 H       
  39 H39           -6.5773     7.9307     5.9955 H       
  40 H40           -6.6564    10.1803     5.0090 H       
  41 H41           -3.2594    10.3174     0.7109 H       
  42 H42           -4.1569     9.4422    -0.5528 H       
  43 H43           -5.0269    10.4905     0.5928 H       
  44 H44            4.3751    -1.5713     0.8467 H       
  45 H45            3.8682    -0.0958    -0.0100 H       
  46 H46            3.4377    -0.3231     1.7020 H       
  47 H47           -3.7802    -1.7103    -1.7554 H       
  48 H48           -2.2252    -2.5298    -1.4743 H       
  49 H49           -4.2849    -1.8365     0.6691 H       
  50 H50           -3.9976    -3.4571    -0.0089 H       
  51 H51           -2.7300    -2.6559     0.9501 H       
@<TRIPOS>BOND
   1    1    2 ar
   2    1    6 ar
   3    1    8 1
   4    2    3 ar
   5    2    9 1
   6    3    4 ar
   7    3   32 1
   8    4    5 ar
   9    4   28 1
  10    5    6 ar
  11    5   33 1
  12    7    8 am
  13    7    9 am
  14    7   10 2
  15    8   11 1
  16    9   30 1
  17   11   12 ar
  18   11   16 ar
  19   12   13 ar
  20   12   34 1
  21   13   14 ar
  22   13   35 1
  23   14   15 ar
  24   14   17 1
  25   15   16 ar
  26   15   36 1
  27   16   37 1
  28   17   24 1
  29   18   19 ar
  30   18   23 ar
  31   18   25 1
  32   19   20 ar
  33   19   26 1
  34   20   21 ar
  35   20   38 1
  36   21   22 ar
  37   21   39 1
  38   22   23 ar
  39   22   40 1
  40   24   25 1
  41   24   26 2
  42   25   27 1
  43   27   41 1
  44   27   42 1
  45   27   43 1
  46   28   29 1
  47   29   44 1
  48   29   45 1
  49   29   46 1
  50   30   31 1
  51   30   47 1
  52   30   48 1
  53   31   49 1
  54   31   50 1
  55   31   51 1

#	End of record

