#	Name: ASD01001074
#	Creating user name:	WinNT
#	Creation time:	15. 06. 2019 18:55

#	Modifying user name:	WinNT
#	Modification time:	15. 06. 2019 18:55

#	Program:	/corina/corina34_cracker 3.40 0067  02.08.2006

@<TRIPOS>MOLECULE
ASD01001074
  36   38    0    0    0
SMALL
NO_CHARGES


@<TRIPOS>ATOM
   1 C1            -0.0166     1.3750     0.0096 C.ar    
   2 C2             0.0021    -0.0041     0.0020 C.ar    
   3 C3             1.1853     2.0871     0.0020 C.ar    
   4 C4             1.2076    -0.6831    -0.0131 C.ar    
   5 C5             2.3988     1.3963    -0.0133 C.ar    
   6 C6             1.1725     3.5619     0.0095 C.2     
   7 C7             2.4030     0.0156    -0.0203 C.ar    
   8 N8             0.1142     4.2959     0.0236 N.2     
   9 N9             0.3711     5.6654     0.0288 N.am    
  10 C10            1.8274     5.8763     0.0162 C.3     
  11 C11            2.3999     4.4450     0.0085 C.3     
  12 C12           -0.5618     6.6380     0.0430 C.2     
  13 C13            2.2441     6.6258    -1.2231 C.ar    
  14 C14            3.2372     7.5845    -1.1498 C.ar    
  15 C15            3.6194     8.2720    -2.2866 C.ar    
  16 C16            3.0088     8.0004    -3.4966 C.ar    
  17 C17            2.0163     7.0410    -3.5700 C.ar    
  18 C18            1.6371     6.3504    -2.4341 C.ar    
  19 C19           -2.0252     6.2782     0.0553 C.3     
  20 O20           -0.2236     7.8029     0.0458 O.2     
  21 Cl21           3.9099    -0.8461    -0.0388 Cl      
  22 H22           -0.9586     1.9033     0.0169 H       
  23 H23           -0.9266    -0.5554     0.0083 H       
  24 H24            1.2162    -1.7631    -0.0190 H       
  25 H25            3.3316     1.9406    -0.0193 H       
  26 H26            2.1457     6.4084     0.9127 H       
  27 H27            3.0037     4.2699     0.8990 H       
  28 H28            2.9878     4.2732    -0.8931 H       
  29 H29            3.7143     7.7967    -0.2044 H       
  30 H30            4.3949     9.0215    -2.2292 H       
  31 H31            3.3069     8.5380    -4.3846 H       
  32 H32            1.5390     6.8290    -4.5154 H       
  33 H33            0.8617     5.6009    -2.4915 H       
  34 H34           -2.1328     5.1936     0.0506 H       
  35 H35           -2.4920     6.6858     0.9520 H       
  36 H36           -2.5093     6.6952    -0.8278 H       
@<TRIPOS>BOND
   1    1    2 ar
   2    1    3 ar
   3    1   22 1
   4    2    4 ar
   5    2   23 1
   6    3    6 1
   7    3    5 ar
   8    4    7 ar
   9    4   24 1
  10    5    7 ar
  11    5   25 1
  12    6    8 2
  13    6   11 1
  14    7   21 1
  15    8    9 1
  16    9   10 1
  17    9   12 am
  18   10   11 1
  19   10   13 1
  20   10   26 1
  21   11   27 1
  22   11   28 1
  23   12   19 1
  24   12   20 2
  25   13   14 ar
  26   13   18 ar
  27   14   15 ar
  28   14   29 1
  29   15   16 ar
  30   15   30 1
  31   16   17 ar
  32   16   31 1
  33   17   18 ar
  34   17   32 1
  35   18   33 1
  36   19   34 1
  37   19   35 1
  38   19   36 1

#	End of record

