#	Name: ASD01230060
#	Creating user name:	WinNT
#	Creation time:	15. 06. 2019 19:11

#	Modifying user name:	WinNT
#	Modification time:	15. 06. 2019 19:11

#	Program:	/corina/corina34_cracker 3.40 0067  02.08.2006

@<TRIPOS>MOLECULE
ASD01230060
  35   38    0    0    0
SMALL
NO_CHARGES


@<TRIPOS>ATOM
   1 C1            -0.0169     1.3942     0.0097 C.ar    
   2 C2             0.0021    -0.0041     0.0020 C.ar    
   3 C3            -1.1776    -0.7033     0.0071 C.ar    
   4 C4            -2.4144    -0.0305     0.0196 C.ar    
   5 C5            -2.4359     1.3661     0.0329 C.ar    
   6 C6            -1.2347     2.0693     0.0308 C.ar    
   7 N7            -3.5287    -0.8017     0.0136 N.2     
   8 C8            -4.5913    -0.6091     0.7063 C.2     
   9 C9            -4.7359     0.5774     1.6228 C.3     
  10 C10           -4.6845     1.8286     0.7829 C.2     
  11 N11           -3.6034     2.1176     0.0576 N.am    
  12 O12           -5.6366     2.5798     0.7665 O.2     
  13 C13            1.2502     2.1522     0.0017 C.2     
  14 C14           -5.6997    -1.5740     0.6021 C.ar    
  15 C15           -5.6113    -2.6948    -0.2391 C.ar    
  16 C16           -6.6937    -3.5553    -0.2829 C.ar    
  17 N17           -7.7627    -3.3091     0.4511 N.ar    
  18 N18           -7.8517    -2.2879     1.2219 N.ar    
  19 C19           -6.8775    -1.4089     1.3434 C.ar    
  20 C20            2.4842     1.6070    -0.0130 C.2     
  21 C21            3.5174     2.5202    -0.0180 C.2     
  22 C22            3.1402     3.8025    -0.0075 C.2     
  23 S23            1.3847     3.9060     0.0022 S.3     
  24 H24            0.9440    -0.5323    -0.0083 H       
  25 H25           -1.1578    -1.7831     0.0011 H       
  26 H26           -1.2473     3.1492     0.0374 H       
  27 H27           -5.6908     0.5241     2.1456 H       
  28 H28           -3.9200     0.5856     2.3455 H       
  29 H29           -3.6348     2.9142    -0.4949 H       
  30 H30           -4.7278    -2.8789    -0.8325 H       
  31 H31           -6.6641    -4.4283    -0.9181 H       
  32 H32           -6.9898    -0.5612     2.0031 H       
  33 H33            2.6497     0.5398    -0.0200 H       
  34 H34            4.5552     2.2213    -0.0292 H       
  35 H35            3.8123     4.6478    -0.0094 H       
@<TRIPOS>BOND
   1    1    2 ar
   2    1   13 1
   3    1    6 ar
   4    2    3 ar
   5    2   24 1
   6    3    4 ar
   7    3   25 1
   8    4    5 ar
   9    4    7 1
  10    5    6 ar
  11    5   11 1
  12    6   26 1
  13    7    8 2
  14    8    9 1
  15    8   14 1
  16    9   10 1
  17    9   27 1
  18    9   28 1
  19   10   11 am
  20   10   12 2
  21   11   29 1
  22   13   20 2
  23   13   23 1
  24   14   15 ar
  25   14   19 ar
  26   15   16 ar
  27   15   30 1
  28   16   17 ar
  29   16   31 1
  30   17   18 ar
  31   18   19 ar
  32   19   32 1
  33   20   21 1
  34   20   33 1
  35   21   22 2
  36   21   34 1
  37   22   23 1
  38   22   35 1

#	End of record

