#	Name: ASD01811779
#	Creating user name:	WinNT
#	Creation time:	15. 06. 2019 19:27

#	Modifying user name:	WinNT
#	Modification time:	15. 06. 2019 19:27

#	Program:	/corina/corina34_cracker 3.40 0067  02.08.2006

@<TRIPOS>MOLECULE
ASD01811779
  58   61    0    0    0
SMALL
NO_CHARGES


@<TRIPOS>ATOM
   1 C1            -0.0624     1.2597    -0.4689 C.2     
   2 N2             0.0097    -0.0339    -0.1018 N.am    
   3 C3             1.2039    -0.6623     0.0123 C.2     
   4 C4             2.3686    -0.0114    -0.2385 C.2     
   5 C5             2.3527     1.3296    -0.6218 C.2     
   6 C6             1.1277     1.9824    -0.7421 C.2     
   7 C7            -1.2235    -0.7732     0.1792 C.3     
   8 C8             1.2407    -2.1109     0.4259 C.3     
   9 O9            -1.1469     1.8066    -0.5709 O.2     
  10 C10            1.0692     3.3958    -1.1449 C.2     
  11 N11           -0.1223     3.9818    -1.3764 N.am    
  12 O12            2.0962     4.0359    -1.2690 O.2     
  13 C13           -0.1769     5.3553    -1.8831 C.3     
  14 C14            3.6812    -0.7390    -0.1020 C.3     
  15 C15            4.2649    -0.4707     1.2612 C.ar    
  16 C16            5.0027     0.6786     1.4808 C.ar    
  17 C17            4.0561    -1.3718     2.2897 C.ar    
  18 C18            4.5880    -1.1308     3.5403 C.ar    
  19 C19            5.3368     0.0225     3.7657 C.ar    
  20 C20            5.5396     0.9293     2.7273 C.ar    
  21 C21           -1.5668     7.4273    -2.0149 C.3     
  22 C22           -1.5097     5.9928    -1.4857 C.3     
  23 C23           -0.0525     5.3417    -3.4079 C.3     
  24 C24           -0.1096     6.7761    -3.9371 C.3     
  25 C25           -1.4425     7.4137    -3.5397 C.3     
  26 O26           -1.6259     6.0055    -0.0615 O.3     
  27 C27            5.9112     0.2869     5.1081 C.2     
  28 C28            6.6552     1.3620     5.4655 C.2     
  29 O29            6.9690     1.2075     6.7660 O.3     
  30 C30            6.4245     0.0587     7.1890 C.2     
  31 N31            5.7841    -0.4971     6.2022 N.2     
  32 H32            3.2755     1.8537    -0.8222 H       
  33 H33           -2.0814    -0.1156     0.0384 H       
  34 H34           -1.3010    -1.6220    -0.5002 H       
  35 H35           -1.2057    -1.1319     1.2083 H       
  36 H36            0.2317    -2.4459     0.6662 H       
  37 H37            1.6380    -2.7122    -0.3918 H       
  38 H38            1.8790    -2.2225     1.3024 H       
  39 H39           -0.9436     3.4941    -1.2075 H       
  40 H40            0.6435     5.9327    -1.4568 H       
  41 H41            3.5173    -1.8098    -0.2227 H       
  42 H42            4.3723    -0.3886    -0.8685 H       
  43 H43            5.1593     1.3807     0.6753 H       
  44 H44            3.4756    -2.2653     2.1139 H       
  45 H45            4.4238    -1.8347     4.3428 H       
  46 H46            6.1158     1.8268     2.8976 H       
  47 H47           -2.5163     7.8815    -1.7318 H       
  48 H48           -0.7464     8.0047    -1.5886 H       
  49 H49           -2.3301     5.4154    -1.9120 H       
  50 H50            0.8970     4.8875    -3.6910 H       
  51 H51           -0.8729     4.7642    -3.8342 H       
  52 H52            0.7108     7.3535    -3.5108 H       
  53 H53           -0.0210     6.7664    -5.0234 H       
  54 H54           -2.2628     6.8362    -3.9660 H       
  55 H55           -1.4831     8.4356    -3.9167 H       
  56 H56           -2.4487     6.3967     0.2626 H       
  57 H57            6.9423     2.1854     4.8284 H       
  58 H58            6.5014    -0.3399     8.1898 H       
@<TRIPOS>BOND
   1    1    2 am
   2    1    6 1
   3    1    9 2
   4    2    3 1
   5    2    7 1
   6    3    4 2
   7    3    8 1
   8    4    5 1
   9    4   14 1
  10    5    6 2
  11    5   32 1
  12    6   10 1
  13    7   33 1
  14    7   34 1
  15    7   35 1
  16    8   36 1
  17    8   37 1
  18    8   38 1
  19   10   11 am
  20   10   12 2
  21   11   13 1
  22   11   39 1
  23   13   23 1
  24   13   22 1
  25   13   40 1
  26   14   15 1
  27   14   41 1
  28   14   42 1
  29   15   17 ar
  30   15   16 ar
  31   16   20 ar
  32   16   43 1
  33   17   18 ar
  34   17   44 1
  35   18   19 ar
  36   18   45 1
  37   19   20 ar
  38   19   27 1
  39   20   46 1
  40   21   22 1
  41   21   25 1
  42   21   47 1
  43   21   48 1
  44   22   26 1
  45   22   49 1
  46   23   24 1
  47   23   50 1
  48   23   51 1
  49   24   25 1
  50   24   52 1
  51   24   53 1
  52   25   54 1
  53   25   55 1
  54   26   56 1
  55   27   28 2
  56   27   31 1
  57   28   29 1
  58   28   57 1
  59   29   30 1
  60   30   31 2
  61   30   58 1

#	End of record

