#	Name: ASD01870025
#	Creating user name:	WinNT
#	Creation time:	15. 06. 2019 19:38

#	Modifying user name:	WinNT
#	Modification time:	15. 06. 2019 19:38

#	Program:	/corina/corina34_cracker 3.40 0067  02.08.2006

@<TRIPOS>MOLECULE
ASD01870025
  53   55    0    0    0
SMALL
NO_CHARGES


@<TRIPOS>ATOM
   1 C1            -0.7428     1.5246    -0.2307 C.3     
   2 C2            -0.5377     0.0639     0.0435 C.2     
   3 C3            -0.4221    -0.4428     1.2326 C.2     
   4 C4            -0.5009     0.3922     2.4829 C.3     
   5 N5            -0.4494     1.8129     2.1031 N.am    
   6 O6            -1.1910     2.1985     0.9484 O.3     
   7 C7             0.5588     2.1324    -0.6862 C.ar    
   8 C8            -0.4618    -0.8728    -1.1346 C.3     
   9 S9             0.4286     2.9124     2.9764 S.o2    
  10 C10            2.1267     2.6533     2.5844 C.ar    
  11 C11            2.7446     3.4469     1.6353 C.ar    
  12 C12            4.0756     3.2463     1.3258 C.ar    
  13 C13            4.7935     2.2467     1.9691 C.ar    
  14 C14            4.1702     1.4517     2.9220 C.ar    
  15 C15            2.8403     1.6605     3.2305 C.ar    
  16 N16            6.1420     2.0407     1.6574 N.am    
  17 C17            6.6582     0.7961     1.6885 C.2     
  18 C18            8.1356     0.5876     1.4762 C.3     
  19 C19           -1.8147     0.1028     3.2117 C.3     
  20 C20            1.6951     1.3489    -0.7681 C.ar    
  21 C21            2.8895     1.9037    -1.1854 C.ar    
  22 C22            2.9482     3.2482    -1.5223 C.ar    
  23 C23            1.8066     4.0322    -1.4393 C.ar    
  24 C24            0.6134     3.4713    -1.0268 C.ar    
  25 O25            4.1220     3.7964    -1.9327 O.3     
  26 C26            4.0844     5.1552    -2.3735 C.3     
  27 O27            5.9338    -0.1562     1.8873 O.2     
  28 O28            0.0896     4.1939     2.4646 O.2     
  29 O29            0.2732     2.5553     4.3430 O.2     
  30 H30           -1.4888     1.6417    -1.0167 H       
  31 H31           -0.2632    -1.5066     1.3292 H       
  32 H32            0.3411     0.1567     3.1338 H       
  33 H33            0.5743    -0.9636    -1.4605 H       
  34 H34           -0.8386    -1.8534    -0.8440 H       
  35 H35           -1.0664    -0.4788    -1.9516 H       
  36 H36            2.1857     4.2241     1.1354 H       
  37 H37            4.5574     3.8660     0.5840 H       
  38 H38            4.7259     0.6735     3.4240 H       
  39 H39            2.3551     1.0429     3.9717 H       
  40 H40            6.7052     2.7936     1.4191 H       
  41 H41            8.6499     0.6282     2.4363 H       
  42 H42            8.3026    -0.3860     1.0154 H       
  43 H43            8.5227     1.3699     0.8232 H       
  44 H44           -1.8573    -0.9532     3.4783 H       
  45 H45           -1.8694     0.7084     4.1164 H       
  46 H46           -2.6534     0.3471     2.5598 H       
  47 H47            1.6490     0.3024    -0.5054 H       
  48 H48            3.7768     1.2914    -1.2489 H       
  49 H49            1.8498     5.0791    -1.7010 H       
  50 H50           -0.2755     4.0812    -0.9620 H       
  51 H51            3.3430     5.2599    -3.1655 H       
  52 H52            3.8165     5.8012    -1.5373 H       
  53 H53            5.0651     5.4411    -2.7537 H       
@<TRIPOS>BOND
   1    1    2 1
   2    1    7 1
   3    1    6 1
   4    1   30 1
   5    2    3 2
   6    2    8 1
   7    3    4 1
   8    3   31 1
   9    4    5 1
  10    4   19 1
  11    4   32 1
  12    5    6 1
  13    5    9 am
  14    7   20 ar
  15    7   24 ar
  16    8   33 1
  17    8   34 1
  18    8   35 1
  19    9   10 1
  20    9   28 2
  21    9   29 2
  22   10   11 ar
  23   10   15 ar
  24   11   12 ar
  25   11   36 1
  26   12   13 ar
  27   12   37 1
  28   13   14 ar
  29   13   16 1
  30   14   15 ar
  31   14   38 1
  32   15   39 1
  33   16   17 am
  34   16   40 1
  35   17   18 1
  36   17   27 2
  37   18   41 1
  38   18   42 1
  39   18   43 1
  40   19   44 1
  41   19   45 1
  42   19   46 1
  43   20   21 ar
  44   20   47 1
  45   21   22 ar
  46   21   48 1
  47   22   23 ar
  48   22   25 1
  49   23   24 ar
  50   23   49 1
  51   24   50 1
  52   25   26 1
  53   26   51 1
  54   26   52 1
  55   26   53 1

#	End of record

