#	Name: ASD07930711
#	Creating user name:	WinNT
#	Creation time:	15. 06. 2019 21:13

#	Modifying user name:	WinNT
#	Modification time:	15. 06. 2019 21:13

#	Program:	/corina/corina34_cracker 3.40 0067  02.08.2006

@<TRIPOS>MOLECULE
ASD07930711
  46   48    0    0    0
SMALL
NO_CHARGES


@<TRIPOS>ATOM
   1 C1             2.8149    -1.4318    -1.6548 C.3     
   2 N2             2.4327    -3.4594     0.5025 N.2     
   3 N3             0.3027    -3.7000    -0.4285 N.pl3   
   4 C4            -0.9862    -3.0449    -0.1828 C.3     
   5 C5            -1.1134    -1.8191    -1.0978 C.3     
   6 S6             0.3140    -0.7303    -0.7958 S.o2    
   7 N7             1.6047    -1.7785    -0.9055 N.am    
   8 C8             1.4765    -2.9961    -0.2525 C.2     
   9 C9            -1.0633    -2.6011     1.2794 C.3     
  10 O10            0.4956     0.1747    -1.8762 O.2     
  11 O11            0.3305    -0.2828     0.5528 O.2     
  12 C12           -2.1055    -4.0103    -0.4763 C.2     
  13 S13           -3.3782    -4.4571     0.6521 S.3     
  14 C14           -4.1030    -5.5273    -0.5409 C.2     
  15 C15           -3.3775    -5.4912    -1.6762 C.2     
  16 C16           -2.2836    -4.6513    -1.6350 C.2     
  17 C17           -5.3196    -6.3409    -0.3306 C.ar    
  18 C18           -5.9961    -6.3020     0.8912 C.ar    
  19 C19           -7.1403    -7.0904     1.0369 C.ar    
  20 C20           -7.5598    -7.8800    -0.0351 C.ar    
  21 N21           -6.8923    -7.8880    -1.1711 N.ar    
  22 C22           -5.8127    -7.1554    -1.3523 C.ar    
  23 C23           -7.8717    -7.0889     2.2680 C.1     
  24 C24           -8.4714    -7.0876     3.2773 C.1     
  25 C25           -9.2232    -7.0860     4.5428 C.3     
  26 F26           -1.6619    -5.4213    -3.7924 F       
  27 F27           -1.5001    -3.1893    -3.3328 F       
  28 C28           -1.3526    -4.4775    -2.8072 C.3     
  29 F29           -0.0316    -4.6603    -2.3846 F       
  30 H30            3.5223    -0.9333    -0.9921 H       
  31 H31            3.2681    -2.3396    -2.0532 H       
  32 H32            2.5548    -0.7647    -2.4767 H       
  33 H33            3.2511    -2.9510     0.6152 H       
  34 H34            0.3303    -4.6278    -0.7104 H       
  35 H35           -1.1185    -2.1377    -2.1402 H       
  36 H36           -2.0367    -1.2858    -0.8715 H       
  37 H37           -0.1928    -1.9910     1.5203 H       
  38 H38           -1.9705    -2.0172     1.4345 H       
  39 H39           -1.0815    -3.4791     1.9251 H       
  40 H40           -3.6341    -6.0713    -2.5503 H       
  41 H41           -5.6441    -5.6799     1.7008 H       
  42 H42           -8.4431    -8.4927     0.0681 H       
  43 H43           -5.2964    -7.1927    -2.3002 H       
  44 H44          -10.0764    -7.7593     4.4594 H       
  45 H45           -8.5739    -7.4210     5.3517 H       
  46 H46           -9.5762    -6.0767     4.7545 H       
@<TRIPOS>BOND
   1    1    7 1
   2    1   30 1
   3    1   31 1
   4    1   32 1
   5    2    8 2
   6    2   33 1
   7    3    4 1
   8    3    8 1
   9    3   34 1
  10    4    5 1
  11    4    9 1
  12    4   12 1
  13    5    6 1
  14    5   35 1
  15    5   36 1
  16    6    7 am
  17    6   10 2
  18    6   11 2
  19    7    8 1
  20    9   37 1
  21    9   38 1
  22    9   39 1
  23   12   13 1
  24   12   16 2
  25   13   14 1
  26   14   15 2
  27   14   17 1
  28   15   16 1
  29   15   40 1
  30   16   28 1
  31   17   18 ar
  32   17   22 ar
  33   18   19 ar
  34   18   41 1
  35   19   20 ar
  36   19   23 1
  37   20   21 ar
  38   20   42 1
  39   21   22 ar
  40   22   43 1
  41   23   24 3
  42   24   25 1
  43   25   44 1
  44   25   45 1
  45   25   46 1
  46   26   28 1
  47   27   28 1
  48   28   29 1

#	End of record

