#	Name: ASD01411011
#	Creating user name:	WinNT
#	Creation time:	15. 06. 2019 19:19

#	Modifying user name:	WinNT
#	Modification time:	15. 06. 2019 19:19

#	Program:	/corina/corina34_cracker 3.40 0067  02.08.2006

@<TRIPOS>MOLECULE
ASD01411011
  69   75    0    0    0
SMALL
NO_CHARGES


@<TRIPOS>ATOM
   1 C1            -0.0649     1.3278    -0.0715 C.ar    
   2 C2             0.0615    -0.0538     0.1664 C.ar    
   3 C3            -1.0720    -0.8379     0.3458 C.ar    
   4 C4            -2.3132    -0.2723     0.2917 C.ar    
   5 C5            -2.4581     1.1011     0.0554 C.ar    
   6 C6            -1.3346     1.9031    -0.1210 C.ar    
   7 N7             1.1894     1.8283    -0.2051 N.2     
   8 C8             2.0646     0.8612    -0.0673 C.2     
   9 N9             1.4150    -0.3224     0.1642 N.pl3   
  10 C10            2.0411    -1.6305     0.3717 C.3     
  11 C11            2.8764    -1.5985     1.6532 C.3     
  12 C12            3.5303    -2.9647     1.8699 C.3     
  13 C13            2.4448    -4.0356     1.9953 C.3     
  14 C14            1.6095    -4.0675     0.7138 C.3     
  15 C15            0.9556    -2.7014     0.4971 C.3     
  16 C16           -3.8067     1.7000    -0.0016 C.2     
  17 O17           -3.9344     2.8916    -0.2065 O.2     
  18 N18           -4.8959     0.9258     0.1736 N.am    
  19 C19           -6.2337     1.5200     0.1170 C.3     
  20 C20           -7.2517     0.4480    -0.2774 C.3     
  21 C21           -6.5923     2.0799     1.4694 C.2     
  22 C22           -6.9657    -0.0245    -1.6796 C.2     
  23 C23           -7.5378     0.4277    -2.8067 C.2     
  24 N24           -7.0277    -0.2372    -3.8879 N.pl3   
  25 C25           -6.0897    -1.1582    -3.4715 C.ar    
  26 C26           -6.0062    -1.0599    -2.0713 C.ar    
  27 C27           -5.2875    -2.0748    -4.1433 C.ar    
  28 C28           -4.4243    -2.8818    -3.4367 C.ar    
  29 C29           -4.3439    -2.7912    -2.0493 C.ar    
  30 C30           -5.1264    -1.8830    -1.3648 C.ar    
  31 O31           -3.4860    -3.5958    -1.3667 O.3     
  32 C32            3.5297     1.0239    -0.1493 C.2     
  33 C33           -5.7347     2.0999     2.4941 C.2     
  34 S34           -6.5530     2.8323     3.8720 S.3     
  35 C35           -7.9670     3.0388     2.9332 C.2     
  36 N36           -7.7755     2.5948     1.7369 N.2     
  37 C37            4.1653     2.2610    -0.0099 C.2     
  38 C38            5.4901     2.1977    -0.1151 C.2     
  39 S39            5.9867     0.5363    -0.3998 S.3     
  40 C40            4.3701    -0.0083    -0.3592 C.2     
  41 H41           -0.9706    -1.8975     0.5281 H       
  42 H42           -3.1895    -0.8877     0.4316 H       
  43 H43           -1.4453     2.9619    -0.3032 H       
  44 H44            2.6853    -1.8636    -0.4761 H       
  45 H45            3.6498    -0.8356     1.5639 H       
  46 H46            2.2322    -1.3654     2.5010 H       
  47 H47            4.1745    -3.1978     1.0221 H       
  48 H48            4.1254    -2.9419     2.7829 H       
  49 H49            2.9106    -5.0088     2.1497 H       
  50 H50            1.8006    -3.8025     2.8431 H       
  51 H51            2.2536    -4.3006    -0.1340 H       
  52 H52            0.8361    -4.8304     0.8031 H       
  53 H53            0.3114    -2.4683     1.3449 H       
  54 H54            0.3605    -2.7241    -0.4159 H       
  55 H55           -4.7939    -0.0249     0.3370 H       
  56 H56           -6.2446     2.3209    -0.6223 H       
  57 H57           -7.1786    -0.3934     0.4116 H       
  58 H58           -8.2567     0.8676    -0.2333 H       
  59 H59           -8.2899     1.2014    -2.8529 H       
  60 H60           -7.2875    -0.0840    -4.8099 H       
  61 H61           -5.3420    -2.1537    -5.2190 H       
  62 H62           -3.8040    -3.5920    -3.9632 H       
  63 H63           -5.0629    -1.8135    -0.2889 H       
  64 H64           -2.6042    -3.2178    -1.2458 H       
  65 H65           -4.7193     1.7321     2.4801 H       
  66 H66           -8.8859     3.4811     3.2887 H       
  67 H67            3.6307     3.1827     0.1667 H       
  68 H68            6.1601     3.0412    -0.0375 H       
  69 H69            4.0632    -1.0356    -0.4887 H       
@<TRIPOS>BOND
   1    1    2 ar
   2    1    7 1
   3    1    6 ar
   4    2    3 ar
   5    2    9 1
   6    3    4 ar
   7    3   41 1
   8    4    5 ar
   9    4   42 1
  10    5    6 ar
  11    5   16 1
  12    6   43 1
  13    7    8 2
  14    8    9 1
  15    8   32 1
  16    9   10 1
  17   10   11 1
  18   10   15 1
  19   10   44 1
  20   11   12 1
  21   11   45 1
  22   11   46 1
  23   12   13 1
  24   12   47 1
  25   12   48 1
  26   13   14 1
  27   13   49 1
  28   13   50 1
  29   14   15 1
  30   14   51 1
  31   14   52 1
  32   15   53 1
  33   15   54 1
  34   16   17 2
  35   16   18 am
  36   18   19 1
  37   18   55 1
  38   19   20 1
  39   19   21 1
  40   19   56 1
  41   20   22 1
  42   20   57 1
  43   20   58 1
  44   21   33 2
  45   21   36 1
  46   22   23 2
  47   22   26 1
  48   23   24 1
  49   23   59 1
  50   24   25 1
  51   24   60 1
  52   25   26 ar
  53   25   27 ar
  54   26   30 ar
  55   27   28 ar
  56   27   61 1
  57   28   29 ar
  58   28   62 1
  59   29   30 ar
  60   29   31 1
  61   30   63 1
  62   31   64 1
  63   32   37 1
  64   32   40 2
  65   33   34 1
  66   33   65 1
  67   34   35 1
  68   35   36 2
  69   35   66 1
  70   37   38 2
  71   37   67 1
  72   38   39 1
  73   38   68 1
  74   39   40 1
  75   40   69 1

#	End of record

