#	Name: ASD01190197
#	Creating user name:	WinNT
#	Creation time:	15. 06. 2019 19:07

#	Modifying user name:	WinNT
#	Modification time:	15. 06. 2019 19:07

#	Program:	/corina/corina34_cracker 3.40 0067  02.08.2006

@<TRIPOS>MOLECULE
ASD01190197
  72   77    0    0    0
SMALL
NO_CHARGES


@<TRIPOS>ATOM
   1 C1            -0.0187     1.5258     0.0104 C.3     
   2 C2            -0.1834     2.0572     1.4357 C.3     
   3 N3             3.0274     3.3715    -0.9230 N.pl3   
   4 C4             2.0253     3.0418    -0.0517 C.2     
   5 C5             1.2046     2.1426    -0.6174 C.2     
   6 C6             1.7237     1.8746    -1.9608 C.ar    
   7 C7             1.3172     1.0501    -3.0118 C.ar    
   8 C8             2.0381     1.0250    -4.1720 C.ar    
   9 C9             3.1723     1.8129    -4.3148 C.ar    
  10 C10            3.5914     2.6331    -3.2906 C.ar    
  11 C11            2.8721     2.6749    -2.1005 C.ar    
  12 C12            4.1021     4.3281    -0.6466 C.3     
  13 C13            3.7140     5.7033    -1.1935 C.3     
  14 C14            4.8363     6.7022    -0.9047 C.3     
  15 N15            4.4636     8.0226    -1.4298 N.3     
  16 C16            5.4006     9.0565    -0.9684 C.3     
  17 C17            5.0255    10.3994    -1.5994 C.3     
  18 N18            3.6446    10.7420    -1.2313 N.3     
  19 C19            2.7077     9.7082    -1.6926 C.3     
  20 C20            3.0828     8.3652    -1.0616 C.3     
  21 C21            3.2720    12.0624    -1.7563 C.3     
  22 N22            0.3222    -4.0860     0.0404 N.pl3   
  23 N23           -0.9196    -4.3806    -0.5322 N.2     
  24 C24           -1.5615    -3.2790    -0.8005 C.2     
  25 C25           -0.7187    -2.1599    -0.3915 C.ar    
  26 C26           -0.8645    -0.7686    -0.4273 C.ar    
  27 C27            0.1373     0.0273     0.0479 C.ar    
  28 C28            1.2998    -0.5309     0.5655 C.ar    
  29 C29            1.4653    -1.8863     0.6106 C.ar    
  30 C30            0.4604    -2.7234     0.1335 C.ar    
  31 C31            1.2698    -5.0298     0.4573 C.ar    
  32 C32            0.8548    -6.2368     1.0046 C.ar    
  33 C33            1.7906    -7.1658     1.4150 C.ar    
  34 C34            3.1420    -6.8945     1.2810 C.ar    
  35 C35            3.5579    -5.6915     0.7354 C.ar    
  36 C36            2.6253    -4.7621     0.3185 C.ar    
  37 F37            4.0558    -7.8045     1.6835 F       
  38 F38           -0.3282     3.4482     1.4009 F       
  39 F39           -1.3190     1.4846     2.0185 F       
  40 F40            0.9464     1.7246     2.1909 F       
  41 O41           -1.1727     1.8654    -0.7609 O.3     
  42 H42            1.9116     3.4449     0.9437 H       
  43 H43            0.4362     0.4341    -2.9077 H       
  44 H44            1.7235     0.3868    -4.9845 H       
  45 H45            3.7317     1.7821    -5.2381 H       
  46 H46            4.4751     3.2421    -3.4113 H       
  47 H47            4.2597     4.3963     0.4298 H       
  48 H48            5.0205     3.9917    -1.1277 H       
  49 H49            3.5563     5.6350    -2.2698 H       
  50 H50            2.7955     6.0396    -0.7123 H       
  51 H51            4.9939     6.7705     0.1716 H       
  52 H52            5.7547     6.3659    -1.3859 H       
  53 H53            5.3472     9.1372     0.1173 H       
  54 H54            6.4144     8.7864    -1.2639 H       
  55 H55            5.7014    11.1734    -1.2360 H       
  56 H56            5.1052    10.3265    -2.6841 H       
  57 H57            1.6938     9.9783    -1.3972 H       
  58 H58            2.7611     9.6274    -2.7783 H       
  59 H59            2.4068     7.5912    -1.4250 H       
  60 H60            3.0031     8.4382     0.0230 H       
  61 H61            3.3528    12.0572    -2.8433 H       
  62 H62            2.2456    12.2910    -1.4694 H       
  63 H63            3.9410    12.8187    -1.3458 H       
  64 H64           -2.5425    -3.2069    -1.2465 H       
  65 H65           -1.7646    -0.3271    -0.8288 H       
  66 H66            2.0821     0.1147     0.9364 H       
  67 H67            2.3738    -2.3074     1.0151 H       
  68 H68           -0.1990    -6.4486     1.1096 H       
  69 H69            1.4683    -8.1044     1.8410 H       
  70 H70            4.6123    -5.4817     0.6321 H       
  71 H71            2.9501    -3.8261    -0.1114 H       
  72 H72           -1.1372     1.5592    -1.6775 H       
@<TRIPOS>BOND
   1    1    2 1
   2    1    5 1
   3    1   27 1
   4    1   41 1
   5    2   38 1
   6    2   39 1
   7    2   40 1
   8    3    4 1
   9    3   11 1
  10    3   12 1
  11    4    5 2
  12    4   42 1
  13    5    6 1
  14    6    7 ar
  15    6   11 ar
  16    7    8 ar
  17    7   43 1
  18    8    9 ar
  19    8   44 1
  20    9   10 ar
  21    9   45 1
  22   10   11 ar
  23   10   46 1
  24   12   13 1
  25   12   47 1
  26   12   48 1
  27   13   14 1
  28   13   49 1
  29   13   50 1
  30   14   15 1
  31   14   51 1
  32   14   52 1
  33   15   16 1
  34   15   20 1
  35   16   17 1
  36   16   53 1
  37   16   54 1
  38   17   18 1
  39   17   55 1
  40   17   56 1
  41   18   19 1
  42   18   21 1
  43   19   20 1
  44   19   57 1
  45   19   58 1
  46   20   59 1
  47   20   60 1
  48   21   61 1
  49   21   62 1
  50   21   63 1
  51   22   23 1
  52   22   30 1
  53   22   31 1
  54   23   24 2
  55   24   25 1
  56   24   64 1
  57   25   26 ar
  58   25   30 ar
  59   26   27 ar
  60   26   65 1
  61   27   28 ar
  62   28   29 ar
  63   28   66 1
  64   29   30 ar
  65   29   67 1
  66   31   32 ar
  67   31   36 ar
  68   32   33 ar
  69   32   68 1
  70   33   34 ar
  71   33   69 1
  72   34   35 ar
  73   34   37 1
  74   35   36 ar
  75   35   70 1
  76   36   71 1
  77   41   72 1

#	End of record

