#	Name: ASD06390016
#	Creating user name:	WinNT
#	Creation time:	15. 06. 2019 21:06

#	Modifying user name:	WinNT
#	Modification time:	15. 06. 2019 21:06

#	Program:	/corina/corina34_cracker 3.40 0067  02.08.2006

@<TRIPOS>MOLECULE
ASD06390016
  48   47    0    0    0
SMALL
NO_CHARGES


@<TRIPOS>ATOM
   1 C1            -0.0157     1.3058     0.0092 C.2     
   2 C2             0.0021    -0.0041     0.0020 C.2     
   3 C3            -1.2926    -0.7753     0.0102 C.3     
   4 C4            -1.3187    -1.7407    -1.1764 C.3     
   5 C5            -2.6332    -2.5237    -1.1680 C.3     
   6 C6            -2.6593    -3.4891    -2.3547 C.3     
   7 C7            -3.9737    -4.2721    -2.3463 C.3     
   8 C8            -3.9998    -5.2376    -3.5330 C.3     
   9 C9            -5.3143    -6.0205    -3.5246 C.3     
  10 C10           -5.3404    -6.9860    -4.7113 C.3     
  11 C11           -6.6548    -7.7689    -4.7029 C.3     
  12 C12           -6.6809    -8.7344    -5.8895 C.3     
  13 C13           -7.9954    -9.5174    -5.8812 C.3     
  14 C14           -8.0214   -10.4828    -7.0678 C.3     
  15 C15           -9.3359   -11.2658    -7.0595 C.3     
  16 C16           -9.3620   -12.2312    -8.2461 C.3     
  17 H17            0.9122     1.8585     0.0033 H       
  18 H18           -0.9582     1.8330     0.0166 H       
  19 H19            0.9446    -0.5313    -0.0098 H       
  20 H20           -1.3737    -1.3393     0.9394 H       
  21 H21           -2.1295    -0.0812    -0.0676 H       
  22 H22           -1.2377    -1.1767    -2.1056 H       
  23 H23           -0.4819    -2.4348    -1.0985 H       
  24 H24           -2.7142    -3.0877    -0.2389 H       
  25 H25           -3.4700    -1.8296    -1.2459 H       
  26 H26           -2.5782    -2.9251    -3.2839 H       
  27 H27           -1.8224    -4.1832    -2.2768 H       
  28 H28           -4.0548    -4.8362    -1.4172 H       
  29 H29           -4.8106    -3.5780    -2.4242 H       
  30 H30           -3.9188    -4.6735    -4.4621 H       
  31 H31           -3.1630    -5.9316    -3.4551 H       
  32 H32           -5.3953    -6.5846    -2.5954 H       
  33 H33           -6.1511    -5.3264    -3.6025 H       
  34 H34           -5.2593    -6.4219    -5.6404 H       
  35 H35           -4.5035    -7.6801    -4.6334 H       
  36 H36           -6.7358    -8.3330    -3.7737 H       
  37 H37           -7.4916    -7.0749    -4.7808 H       
  38 H38           -6.5999    -8.1703    -6.8187 H       
  39 H39           -5.8441    -9.4285    -5.8117 H       
  40 H40           -8.0764   -10.0814    -4.9520 H       
  41 H41           -8.8322    -8.8233    -5.9590 H       
  42 H42           -7.9404    -9.9188    -7.9970 H       
  43 H43           -7.1846   -11.1769    -6.9900 H       
  44 H44           -9.4169   -11.8298    -6.1303 H       
  45 H45          -10.1727   -10.5717    -7.1373 H       
  46 H46           -8.5252   -12.9253    -8.1683 H       
  47 H47          -10.2984   -12.7890    -8.2402 H       
  48 H48           -9.2810   -11.6672    -9.1753 H       
@<TRIPOS>BOND
   1    1    2 2
   2    1   17 1
   3    1   18 1
   4    2    3 1
   5    2   19 1
   6    3    4 1
   7    3   20 1
   8    3   21 1
   9    4    5 1
  10    4   22 1
  11    4   23 1
  12    5    6 1
  13    5   24 1
  14    5   25 1
  15    6    7 1
  16    6   26 1
  17    6   27 1
  18    7    8 1
  19    7   28 1
  20    7   29 1
  21    8    9 1
  22    8   30 1
  23    8   31 1
  24    9   10 1
  25    9   32 1
  26    9   33 1
  27   10   11 1
  28   10   34 1
  29   10   35 1
  30   11   12 1
  31   11   36 1
  32   11   37 1
  33   12   13 1
  34   12   38 1
  35   12   39 1
  36   13   14 1
  37   13   40 1
  38   13   41 1
  39   14   15 1
  40   14   42 1
  41   14   43 1
  42   15   16 1
  43   15   44 1
  44   15   45 1
  45   16   46 1
  46   16   47 1
  47   16   48 1

#	End of record

