#	Name: ASD03081086
#	Creating user name:	WinNT
#	Creation time:	15. 06. 2019 20:26

#	Modifying user name:	WinNT
#	Modification time:	15. 06. 2019 20:26

#	Program:	/corina/corina34_cracker 3.40 0067  02.08.2006

@<TRIPOS>MOLECULE
ASD03081086
  55   58    0    0    0
SMALL
NO_CHARGES


@<TRIPOS>ATOM
   1 N1            -0.0179     1.4666     0.0101 N.am    
   2 C2             0.0021    -0.0041     0.0020 C.3     
   3 C3             0.9085    -0.4723    -1.1414 C.3     
   4 N4             2.2251     0.1660    -1.0110 N.3     
   5 C5             2.1249     1.6258    -1.1417 C.3     
   6 C6             1.2683     2.1800     0.0017 C.3     
   7 C7            -1.1838     2.1425     0.0194 C.2     
   8 O8            -2.2372     1.5369     0.0211 O.2     
   9 O9            -1.1814     3.4889     0.0267 O.3     
  10 C10            3.1298    -0.3586    -1.9373 C.ar    
  11 C11            4.4333     0.1131    -1.9774 C.ar    
  12 C12            5.3324    -0.4142    -2.9035 C.ar    
  13 C13            4.9144    -1.4136    -3.7844 C.ar    
  14 C14            3.6152    -1.8760    -3.7370 C.ar    
  15 C15            2.7251    -1.3574    -2.8151 C.ar    
  16 O16            7.2608     1.0341    -2.1726 O.3     
  17 N17            8.4238     1.2051    -2.4709 N.2     
  18 C18            8.7637     0.4076    -3.4509 C.2     
  19 N19            7.6753    -0.3224    -3.7721 N.2     
  20 C20            6.7237     0.0836    -2.9529 C.2     
  21 C21           10.3301    -0.5752    -5.1320 C.ar    
  22 C22           10.1001     0.3221    -4.0915 C.ar    
  23 C23           11.1474     1.1404    -3.6609 C.ar    
  24 C24           12.3746     1.0227    -4.2911 C.ar    
  25 C25           12.5230     0.1075    -5.3169 C.ar    
  26 N26           11.5151    -0.6516    -5.7019 N.ar    
  27 C27           -2.4739     4.1504     0.0364 C.3     
  28 C28           -3.2505     3.7339     1.2872 C.3     
  29 C29           -2.2707     5.6668     0.0437 C.3     
  30 C30           -3.2625     3.7475    -1.2112 C.3     
  31 H31            0.3920    -0.3702     0.9518 H       
  32 H32           -1.0081    -0.3831    -0.1529 H       
  33 H33            1.0231    -1.5553    -1.0945 H       
  34 H34            0.4625    -0.1944    -2.0963 H       
  35 H35            3.1216     2.0644    -1.0951 H       
  36 H36            1.6619     1.8745    -2.0966 H       
  37 H37            1.0953     3.2449    -0.1535 H       
  38 H38            1.7799     2.0238     0.9514 H       
  39 H39            4.7508     0.8865    -1.2937 H       
  40 H40            5.6079    -1.8245    -4.5031 H       
  41 H41            3.2938    -2.6488    -4.4195 H       
  42 H42            1.7107    -1.7264    -2.7797 H       
  43 H43            9.5306    -1.2169    -5.4718 H       
  44 H44           11.0033     1.8472    -2.8571 H       
  45 H45           13.2068     1.6393    -3.9850 H       
  46 H46           13.4788     0.0129    -5.8108 H       
  47 H47           -2.6887     4.0209     2.1760 H       
  48 H48           -4.2208     4.2305     1.2945 H       
  49 H49           -3.3953     2.6536     1.2820 H       
  50 H50           -1.7174     5.9635    -0.8473 H       
  51 H51           -3.2410     6.1634     0.0511 H       
  52 H52           -1.7089     5.9538     0.9326 H       
  53 H53           -3.4073     2.6671    -1.2164 H       
  54 H54           -4.2328     4.2440    -1.2039 H       
  55 H55           -2.7092     4.0442    -2.1023 H       
@<TRIPOS>BOND
   1    1    2 1
   2    1    6 1
   3    1    7 am
   4    2    3 1
   5    2   31 1
   6    2   32 1
   7    3    4 1
   8    3   33 1
   9    3   34 1
  10    4    5 1
  11    4   10 1
  12    5    6 1
  13    5   35 1
  14    5   36 1
  15    6   37 1
  16    6   38 1
  17    7    8 2
  18    7    9 1
  19    9   27 1
  20   10   11 ar
  21   10   15 ar
  22   11   12 ar
  23   11   39 1
  24   12   13 ar
  25   12   20 1
  26   13   14 ar
  27   13   40 1
  28   14   15 ar
  29   14   41 1
  30   15   42 1
  31   16   17 1
  32   16   20 1
  33   17   18 2
  34   18   19 1
  35   18   22 1
  36   19   20 2
  37   21   22 ar
  38   21   26 ar
  39   21   43 1
  40   22   23 ar
  41   23   24 ar
  42   23   44 1
  43   24   25 ar
  44   24   45 1
  45   25   26 ar
  46   25   46 1
  47   27   28 1
  48   27   30 1
  49   27   29 1
  50   28   47 1
  51   28   48 1
  52   28   49 1
  53   29   50 1
  54   29   51 1
  55   29   52 1
  56   30   53 1
  57   30   54 1
  58   30   55 1

#	End of record

