#	Name: ASD01120226
#	Creating user name:	WinNT
#	Creation time:	15. 06. 2019 18:59

#	Modifying user name:	WinNT
#	Modification time:	15. 06. 2019 18:59

#	Program:	/corina/corina34_cracker 3.40 0067  02.08.2006

@<TRIPOS>MOLECULE
ASD01120226
  52   53    0    0    0
SMALL
NO_CHARGES


@<TRIPOS>ATOM
   1 C1            -0.0167     1.3779     0.0096 C.ar    
   2 C2             0.0021    -0.0041     0.0020 C.ar    
   3 C3            -1.1857    -0.7116     0.0095 C.ar    
   4 C4            -2.3919    -0.0369     0.0251 C.ar    
   5 C5            -2.4106     1.3455     0.0336 C.ar    
   6 C6            -1.2232     2.0528     0.0305 C.ar    
   7 S7            -3.9483     2.2057     0.0529 S.o2    
   8 N8            -4.3616     2.4354     1.6399 N.am    
   9 C9            -3.6009     3.2212     2.4274 C.2     
  10 N10           -3.9372     3.4082     3.7191 N.am    
  11 O11           -3.6934     3.4955    -0.4862 O.2     
  12 O12           -4.9136     1.3142    -0.4882 O.2     
  13 O13           -2.6111     3.7615     1.9726 O.2     
  14 C14           -3.6967     2.7254    12.0009 C.ar    
  15 C15           -2.4974     2.3562    12.5801 C.ar    
  16 C16           -1.4115     3.2103    12.5258 C.ar    
  17 C17           -1.5254     4.4334    11.8922 C.ar    
  18 C18           -2.7251     4.8027    11.3128 C.ar    
  19 C19           -3.8089     3.9465    11.3622 C.ar    
  20 S20           -2.8702     6.3619    10.5050 S.o2    
  21 N21           -2.4569     6.1322     8.9180 N.am    
  22 C22           -3.2177     5.3464     8.1305 C.2     
  23 N23           -2.8813     5.1594     6.8388 N.am    
  24 O24           -4.2522     6.6924    10.5160 O.2     
  25 O25           -1.8666     7.1983    11.0640 O.2     
  26 O26           -4.2075     4.8061     8.5852 O.2     
  27 C27           -3.7082     4.3052     5.9828 C.3     
  28 C28           -3.1103     4.2624     4.5751 C.3     
  29 C29           -4.8803     1.7945    12.0602 C.3     
  30 C30            1.2780     2.1491     0.0014 C.3     
  31 H31            0.9446    -0.5313    -0.0101 H       
  32 H32           -1.1711    -1.7915     0.0029 H       
  33 H33           -3.3198    -0.5895     0.0302 H       
  34 H34           -1.2378     3.1327     0.0372 H       
  35 H35           -5.1512     2.0044     2.0027 H       
  36 H36           -4.7269     2.9772     4.0819 H       
  37 H37           -2.4085     1.4006    13.0755 H       
  38 H38           -0.4746     2.9220    12.9790 H       
  39 H39           -0.6774     5.1008    11.8503 H       
  40 H40           -4.7461     4.2350    10.9095 H       
  41 H41           -1.6673     6.5632     8.5552 H       
  42 H42           -2.0917     5.5904     6.4760 H       
  43 H43           -3.7379     3.2969     6.3958 H       
  44 H44           -4.7198     4.7085     5.9357 H       
  45 H45           -2.0987     3.8591     4.6222 H       
  46 H46           -3.0806     5.2707     4.1621 H       
  47 H47           -5.4604     2.0011    12.9596 H       
  48 H48           -5.5065     1.9464    11.1810 H       
  49 H49           -4.5301     0.7625    12.0828 H       
  50 H50            1.5804     2.3405    -1.0282 H       
  51 H51            1.1397     3.0969     0.5217 H       
  52 H52            2.0505     1.5677     0.5048 H       
@<TRIPOS>BOND
   1    1    2 ar
   2    1   30 1
   3    1    6 ar
   4    2    3 ar
   5    2   31 1
   6    3    4 ar
   7    3   32 1
   8    4    5 ar
   9    4   33 1
  10    5    6 ar
  11    5    7 1
  12    6   34 1
  13    7    8 am
  14    7   11 2
  15    7   12 2
  16    8    9 am
  17    8   35 1
  18    9   10 am
  19    9   13 2
  20   10   28 1
  21   10   36 1
  22   14   15 ar
  23   14   29 1
  24   14   19 ar
  25   15   16 ar
  26   15   37 1
  27   16   17 ar
  28   16   38 1
  29   17   18 ar
  30   17   39 1
  31   18   19 ar
  32   18   20 1
  33   19   40 1
  34   20   21 am
  35   20   24 2
  36   20   25 2
  37   21   22 am
  38   21   41 1
  39   22   23 am
  40   22   26 2
  41   23   27 1
  42   23   42 1
  43   27   28 1
  44   27   43 1
  45   27   44 1
  46   28   45 1
  47   28   46 1
  48   29   47 1
  49   29   48 1
  50   29   49 1
  51   30   50 1
  52   30   51 1
  53   30   52 1

#	End of record

