#	Name: ASD01882288
#	Creating user name:	WinNT
#	Creation time:	15. 06. 2019 19:44

#	Modifying user name:	WinNT
#	Modification time:	15. 06. 2019 19:44

#	Program:	/corina/corina34_cracker 3.40 0067  02.08.2006

@<TRIPOS>MOLECULE
ASD01882288
  30   31    0    0    0
SMALL
NO_CHARGES


@<TRIPOS>ATOM
   1 C1            -0.0129     1.4114     0.0972 C.2     
   2 C2             0.0064    -0.0044     0.0929 C.2     
   3 C3             1.2404    -0.6613    -0.0133 C.2     
   4 C4             2.4105     0.1093    -0.1115 C.2     
   5 C5             2.3342     1.4594    -0.1020 C.2     
   6 N6             1.1407     2.0982     0.0003 N.am    
   7 C7            -1.2112    -0.7510     0.1957 C.1     
   8 N8            -2.1771    -1.3434     0.2771 N.1     
   9 O9            -1.0731     2.0075     0.1835 O.2     
  10 O10            1.3029    -2.0121    -0.0207 O.3     
  11 C11            1.7563    -2.6339    -1.2248 C.3     
  12 C12            1.1077     3.5628     0.0054 C.3     
  13 C13            1.2183     4.0705     1.4445 C.3     
  14 C14            1.1838     5.6001     1.4497 C.3     
  15 C15            1.1645     6.3016     2.8093 C.3     
  16 C16            2.4301     6.3330     1.9502 C.3     
  17 H17            3.3714    -0.3766    -0.1942 H       
  18 H18            3.2411     2.0411    -0.1774 H       
  19 H19            1.7588    -3.7163    -1.0961 H       
  20 H20            1.0896    -2.3671    -2.0448 H       
  21 H21            2.7663    -2.2928    -1.4520 H       
  22 H22            1.9426     3.9471    -0.5806 H       
  23 H23            0.1695     3.9066    -0.4301 H       
  24 H24            0.3834     3.6862     2.0304 H       
  25 H25            2.1565     3.7267     1.8799 H       
  26 H26            0.6208     6.0604     0.6378 H       
  27 H27            0.5891     7.2236     2.8917 H       
  28 H28            1.1763     5.6733     3.7000 H       
  29 H29            3.2746     5.7255     2.2756 H       
  30 H30            2.6874     7.2758     1.4674 H       
@<TRIPOS>BOND
   1    1    2 1
   2    1    6 am
   3    1    9 2
   4    2    3 2
   5    2    7 1
   6    3    4 1
   7    3   10 1
   8    4    5 2
   9    4   17 1
  10    5    6 1
  11    5   18 1
  12    6   12 1
  13    7    8 3
  14   10   11 1
  15   11   19 1
  16   11   20 1
  17   11   21 1
  18   12   13 1
  19   12   22 1
  20   12   23 1
  21   13   14 1
  22   13   24 1
  23   13   25 1
  24   14   15 1
  25   14   16 1
  26   14   26 1
  27   15   16 1
  28   15   27 1
  29   15   28 1
  30   16   29 1
  31   16   30 1

#	End of record

