#	Name: ASD01028666
#	Creating user name:	WinNT
#	Creation time:	15. 06. 2019 18:57

#	Modifying user name:	WinNT
#	Modification time:	15. 06. 2019 18:57

#	Program:	/corina/corina34_cracker 3.40 0067  02.08.2006

@<TRIPOS>MOLECULE
ASD01028666
  10   10    0    0    0
SMALL
NO_CHARGES


@<TRIPOS>ATOM
   1 S1            -0.0191     1.5571     0.0106 S.3     
   2 N2             0.0021    -0.0041     0.0020 N.2     
   3 C3             1.2390    -0.4305    -0.0121 C.2     
   4 C4             2.2220     0.5624    -0.0161 C.2     
   5 C5             1.6811     1.7993    -0.0043 C.2     
   6 C6             1.5728    -1.8618    -0.0225 C.2     
   7 O7             0.6877    -2.6909    -0.0185 O.2     
   8 Br8            2.6019     3.4510    -0.0048 Br      
   9 H9             3.2837     0.3648    -0.0273 H       
  10 H10            2.6063    -2.1751    -0.0337 H       
@<TRIPOS>BOND
   1    1    2 1
   2    1    5 1
   3    2    3 2
   4    3    4 1
   5    3    6 1
   6    4    5 2
   7    4    9 1
   8    5    8 1
   9    6    7 2
  10    6   10 1

#	End of record

