#	Name: ASD00960170
#	Creating user name:	WinNT
#	Creation time:	15. 06. 2019 18:53

#	Modifying user name:	WinNT
#	Modification time:	15. 06. 2019 18:53

#	Program:	/corina/corina34_cracker 3.40 0067  02.08.2006

@<TRIPOS>MOLECULE
ASD00960170
  84   88    0    0    0
SMALL
NO_CHARGES


@<TRIPOS>ATOM
   1 O1            -0.8661     4.0747     0.9608 O.3     
   2 O2            -2.1878     5.4965    -1.1733 O.3     
   3 C3            -0.7315     5.4279     0.7611 C.3     
   4 C4            -1.1118     6.1362    -0.4512 C.3     
   5 C5            -1.6563     7.5466     0.0338 C.3     
   6 O6            -1.4888     7.5138     1.4875 O.3     
   7 C7            -1.6578     6.1221     1.8258 C.3     
   8 C8            -1.2994     5.7177     3.2901 C.3     
   9 C9            -0.7650     8.6362    -0.5041 C.2     
  10 C10           -0.8756     9.2036    -1.7287 C.2     
  11 N11            0.2669     9.2036     0.1643 N.pl3   
  12 C12            0.8459    10.1588    -0.6431 C.2     
  13 C13            0.1385    10.1758    -1.8468 C.2     
  14 N14            0.8057     8.9993     1.4430 N.2     
  15 C15            1.8293     9.7049     1.8410 C.2     
  16 N16            2.3964    10.6302     1.0706 N.2     
  17 C17            1.9497    10.8839    -0.1494 C.2     
  18 O18           -2.0634     4.5535     3.6054 O.3     
  19 N19            2.5566    11.8492    -0.9288 N.pl3   
  20 C20            0.0526     6.2994    -1.4646 C.3     
  21 C21            0.4009    11.0397    -3.0121 C.2     
  22 N22           -0.1956    10.9352    -4.2363 N.pl3   
  23 C23            0.3325    11.9264    -5.0249 C.2     
  24 C24            1.2238    12.5986    -4.2707 C.2     
  25 N25            1.2465    12.0482    -3.0499 N.2     
  26 Si26           0.2163     3.1573     1.5190 Si      
  27 Si27          -1.5892     3.0335     3.5057 Si      
  28 O28            0.0439     2.9480     3.2136 O.3     
  29 C29            0.1190     1.4109     0.7076 C.3     
  30 C30            1.9189     3.8028     1.1668 C.3     
  31 C31            0.8698     1.4253    -0.6254 C.3     
  32 C32            0.7557     0.3789     1.6405 C.3     
  33 C33            2.9552     2.7456     1.5531 C.3     
  34 C34            2.0457     4.1202    -0.3245 C.3     
  35 C35           -1.9743     2.1353     5.0620 C.3     
  36 C36           -0.7798     2.2283     6.0135 C.3     
  37 C37           -3.2029     2.7637     5.7229 C.3     
  38 C38           -2.6233     2.2093     2.0875 C.3     
  39 C39           -3.9651     1.7315     2.6463 C.3     
  40 C40           -2.8687     3.2310     0.9754 C.3     
  41 H41           -2.4488     5.9591    -1.9813 H       
  42 H42            0.2698     5.6907     1.0815 H       
  43 H43           -2.6563     7.7141    -0.2840 H       
  44 H44           -2.7538     5.7747     1.6362 H       
  45 H45           -0.2039     5.4550     3.2728 H       
  46 H46           -1.5478     6.5025     3.9160 H       
  47 H47           -1.6097     8.9553    -2.4810 H       
  48 H48            2.2292     9.5323     2.8293 H       
  49 H49            2.9234    12.6464    -0.5154 H       
  50 H50            2.6160    11.7300    -1.8896 H       
  51 H51            0.2664     5.3375    -1.9304 H       
  52 H52           -0.2317     7.0195    -2.2319 H       
  53 H53            0.9409     6.6560    -0.9431 H       
  54 H54           -0.8648    10.2838    -4.4987 H       
  55 H55            0.0815    12.1290    -6.0556 H       
  56 H56            1.8167    13.4411    -4.5946 H       
  57 H57           -0.9247     1.1486     0.5339 H       
  58 H58            2.0911     4.7093     1.7471 H       
  59 H59            1.9422     1.4799    -0.4378 H       
  60 H60            0.6439     0.5143    -1.1796 H       
  61 H61            0.5584     2.2919    -1.2085 H       
  62 H62            0.3108     0.4620     2.6321 H       
  63 H63            0.5819    -0.6227     1.2471 H       
  64 H64            1.8282     0.5620     1.7070 H       
  65 H65            2.9310     1.9314     0.8287 H       
  66 H66            3.9480     3.1956     1.5608 H       
  67 H67            2.7250     2.3564     2.5449 H       
  68 H68            1.2150     4.7551    -0.6327 H       
  69 H69            2.9867     4.6391    -0.5069 H       
  70 H70            2.0255     3.1925    -0.8964 H       
  71 H71           -2.1785     1.0886     4.8364 H       
  72 H72            0.0954     1.7806     5.5427 H       
  73 H73           -0.5756     3.2750     6.2391 H       
  74 H74           -1.0082     1.6955     6.9366 H       
  75 H75           -4.0906     2.5316     5.1345 H       
  76 H76           -3.3191     2.3623     6.7296 H       
  77 H77           -3.0742     3.8448     5.7753 H       
  78 H78           -2.0739     1.3586     1.6845 H       
  79 H79           -4.6328     1.4798     1.8224 H       
  80 H80           -3.8067     0.8502     3.2678 H       
  81 H81           -4.4116     2.5241     3.2467 H       
  82 H82           -2.2586     2.9779     0.1084 H       
  83 H83           -3.9220     3.2170     0.6951 H       
  84 H84           -2.6005     4.2261     1.3305 H       
@<TRIPOS>BOND
   1    1   26 1
   2    1    3 1
   3    2    4 1
   4    2   41 1
   5    3    4 1
   6    3    7 1
   7    3   42 1
   8    4   20 1
   9    4    5 1
  10    5    6 1
  11    5    9 1
  12    5   43 1
  13    6    7 1
  14    7    8 1
  15    7   44 1
  16    8   18 1
  17    8   45 1
  18    8   46 1
  19    9   10 2
  20    9   11 1
  21   10   13 1
  22   10   47 1
  23   11   12 1
  24   11   14 1
  25   12   13 2
  26   12   17 1
  27   13   21 1
  28   14   15 2
  29   15   16 1
  30   15   48 1
  31   16   17 2
  32   17   19 1
  33   18   27 1
  34   19   49 1
  35   19   50 1
  36   20   51 1
  37   20   52 1
  38   20   53 1
  39   21   22 1
  40   21   25 2
  41   22   23 1
  42   22   54 1
  43   23   24 2
  44   23   55 1
  45   24   25 1
  46   24   56 1
  47   26   28 1
  48   26   29 1
  49   26   30 1
  50   27   28 1
  51   27   35 1
  52   27   38 1
  53   29   31 1
  54   29   32 1
  55   29   57 1
  56   30   33 1
  57   30   34 1
  58   30   58 1
  59   31   59 1
  60   31   60 1
  61   31   61 1
  62   32   62 1
  63   32   63 1
  64   32   64 1
  65   33   65 1
  66   33   66 1
  67   33   67 1
  68   34   68 1
  69   34   69 1
  70   34   70 1
  71   35   36 1
  72   35   37 1
  73   35   71 1
  74   36   72 1
  75   36   73 1
  76   36   74 1
  77   37   75 1
  78   37   76 1
  79   37   77 1
  80   38   39 1
  81   38   40 1
  82   38   78 1
  83   39   79 1
  84   39   80 1
  85   39   81 1
  86   40   82 1
  87   40   83 1
  88   40   84 1

#	End of record

