#	Name: ASD00111107
#	Creating user name:	WinNT
#	Creation time:	15. 06. 2019 18:30

#	Modifying user name:	WinNT
#	Modification time:	15. 06. 2019 18:30

#	Program:	/corina/corina34_cracker 3.40 0067  02.08.2006

@<TRIPOS>MOLECULE
ASD00111107
  32   32    0    0    0
SMALL
NO_CHARGES


@<TRIPOS>ATOM
   1 N1            -0.0178     1.4608     0.0101 N.am    
   2 C2            -1.2924    -0.5351     0.6212 C.3     
   3 C3             0.0021    -0.0041     0.0020 C.3     
   4 C4             0.1210    -0.5046    -1.4389 C.3     
   5 C5            -1.3503    -0.1451     2.0757 C.ar    
   6 C6            -0.6426    -0.8733     3.0152 C.ar    
   7 C7            -0.6936    -0.5175     4.3506 C.ar    
   8 C8            -1.4519     0.5665     4.7493 C.ar    
   9 C9            -2.1623     1.2981     3.8090 C.ar    
  10 C10           -2.1054     0.9424     2.4690 C.ar    
  11 O11           -2.9088     2.3648     4.1989 O.3     
  12 C12           -2.9163     2.6763     5.5935 C.3     
  13 I13            0.5075    -2.5180     2.4143 I       
  14 C14            1.1401     2.1505     0.0027 C.2     
  15 O15            2.1985     1.5584    -0.0106 O.2     
  16 C16            1.1197     3.6573     0.0110 C.3     
  17 F17            2.4322     4.1416     0.0011 F       
  18 F18            0.4430     4.1208    -1.1224 F       
  19 F19            0.4648     4.1085     1.1620 F       
  20 H20           -0.8643     1.9343     0.0167 H       
  21 H21           -2.1475    -0.1091     0.0965 H       
  22 H22           -1.3174    -1.6214     0.5350 H       
  23 H23            0.8543    -0.3591     0.5815 H       
  24 H24            0.1358    -1.5945    -1.4449 H       
  25 H25           -0.7313    -0.1496    -2.0183 H       
  26 H26            1.0432    -0.1263    -1.8800 H       
  27 H27           -0.1406    -1.0876     5.0825 H       
  28 H28           -1.4917     0.8439     5.7923 H       
  29 H29           -2.6542     1.5133     1.7346 H       
  30 H30           -3.5490     3.5466     5.7680 H       
  31 H31           -3.3055     1.8260     6.1536 H       
  32 H32           -1.9003     2.8938     5.9227 H       
@<TRIPOS>BOND
   1    1    3 1
   2    1   14 am
   3    1   20 1
   4    2    3 1
   5    2    5 1
   6    2   21 1
   7    2   22 1
   8    3    4 1
   9    3   23 1
  10    4   24 1
  11    4   25 1
  12    4   26 1
  13    5    6 ar
  14    5   10 ar
  15    6    7 ar
  16    6   13 1
  17    7    8 ar
  18    7   27 1
  19    8    9 ar
  20    8   28 1
  21    9   10 ar
  22    9   11 1
  23   10   29 1
  24   11   12 1
  25   12   30 1
  26   12   31 1
  27   12   32 1
  28   14   15 2
  29   14   16 1
  30   16   17 1
  31   16   18 1
  32   16   19 1

#	End of record

