#	Name: ASD01880443
#	Creating user name:	WinNT
#	Creation time:	15. 06. 2019 19:40

#	Modifying user name:	WinNT
#	Modification time:	15. 06. 2019 19:40

#	Program:	/corina/corina34_cracker 3.40 0067  02.08.2006

@<TRIPOS>MOLECULE
ASD01880443
  22   23    0    0    0
SMALL
NO_CHARGES


@<TRIPOS>ATOM
   1 O1            -0.0161     1.3381     0.0094 O.3     
   2 C2             0.0021    -0.0041     0.0020 C.2     
   3 O3             1.0565    -0.5939    -0.0112 O.2     
   4 C4            -1.2926    -0.7753     0.0102 C.3     
   5 C5            -1.6575    -1.5554    -1.2556 C.3     
   6 C6            -1.2038    -2.3017     0.0140 C.3     
   7 C7            -2.4533    -3.1056     0.4467 C.3     
   8 C8            -3.2689    -3.1732    -0.8696 C.3     
   9 O9            -3.0409    -1.8820    -1.4740 O.3     
  10 N10           -3.2009    -2.3900     1.4893 N.3     
  11 C11           -2.0688    -4.4866     0.9116 C.2     
  12 O12           -1.0483    -4.9959     0.5129 O.2     
  13 O13           -2.8600    -5.1507     1.7687 O.3     
  14 H14            0.8394     1.7888     0.0037 H       
  15 H15           -2.1078    -0.3184     0.5714 H       
  16 H16           -1.0207    -1.4657    -2.1356 H       
  17 H17           -0.2304    -2.7866     0.0872 H       
  18 H18           -2.8942    -3.9696    -1.5127 H       
  19 H19           -4.3285    -3.3161    -0.6577 H       
  20 H20           -4.0161    -2.9125     1.7729 H       
  21 H21           -2.6101    -2.1839     2.2809 H       
  22 H22           -2.5717    -6.0335     2.0384 H       
@<TRIPOS>BOND
   1    1    2 1
   2    1   14 1
   3    2    3 2
   4    2    4 1
   5    4    5 1
   6    4    6 1
   7    4   15 1
   8    5    9 1
   9    5    6 1
  10    5   16 1
  11    6    7 1
  12    6   17 1
  13    7    8 1
  14    7   10 1
  15    7   11 1
  16    8    9 1
  17    8   18 1
  18    8   19 1
  19   10   20 1
  20   10   21 1
  21   11   12 2
  22   11   13 1
  23   13   22 1

#	End of record

