#	Name: ASD00100094
#	Creating user name:	WinNT
#	Creation time:	15. 06. 2019 18:30

#	Modifying user name:	WinNT
#	Modification time:	15. 06. 2019 18:30

#	Program:	/corina/corina34_cracker 3.40 0067  02.08.2006

@<TRIPOS>MOLECULE
ASD00100094
  38   40    0    0    0
SMALL
NO_CHARGES


@<TRIPOS>ATOM
   1 N1            -0.1255     1.5363     0.3558 N.pl3   
   2 C2            -0.0183     0.1677     0.1770 C.2     
   3 N3             1.1016    -0.4980     0.0327 N.2     
   4 C4             0.8187    -1.8162    -0.1183 C.2     
   5 C5            -0.5283    -1.9623    -0.0641 C.2     
   6 N6            -1.0578    -0.7092     0.1280 N.pl3   
   7 C7            -2.4793    -0.3777     0.2534 C.3     
   8 C8            -3.0241     0.0161    -1.0953 C.ar    
   9 C9            -3.4568    -0.9600    -1.9815 C.ar    
  10 C10           -3.9577    -0.5942    -3.2222 C.ar    
  11 C11           -4.0247     0.7406    -3.5726 C.ar    
  12 C12           -3.5926     1.7112    -2.6881 C.ar    
  13 C13           -3.0985     1.3495    -1.4482 C.ar    
  14 O14           -3.3895    -2.2722    -1.6346 O.3     
  15 C15           -3.8525    -3.2221    -2.5965 C.3     
  16 C16            1.8079    -2.9050    -0.3094 C.ar    
  17 C17            3.1703    -2.6135    -0.3460 C.ar    
  18 C18            4.0864    -3.6300    -0.5241 C.ar    
  19 C19            3.6542    -4.9373    -0.6666 C.ar    
  20 C20            2.3023    -5.2321    -0.6310 C.ar    
  21 C21            1.3783    -4.2238    -0.4472 C.ar    
  22 Br22           4.9151    -6.3251    -0.9115 Br      
  23 H23            0.6744     2.0793     0.4341 H       
  24 H24           -1.0006     1.9526     0.3989 H       
  25 H25           -1.0792    -2.8872    -0.1510 H       
  26 H26           -3.0234    -1.2458     0.6256 H       
  27 H27           -2.5988     0.4521     0.9500 H       
  28 H28           -4.2948    -1.3521    -3.9138 H       
  29 H29           -4.4147     1.0259    -4.5385 H       
  30 H30           -3.6451     2.7540    -2.9642 H       
  31 H31           -2.7660     2.1099    -0.7571 H       
  32 H32           -4.9024    -3.0315    -2.8191 H       
  33 H33           -3.2649    -3.1301    -3.5100 H       
  34 H34           -3.7434    -4.2293    -2.1942 H       
  35 H35            3.5085    -1.5938    -0.2356 H       
  36 H36            5.1423    -3.4052    -0.5526 H       
  37 H37            1.9703    -6.2537    -0.7430 H       
  38 H38            0.3240    -4.4555    -0.4147 H       
@<TRIPOS>BOND
   1    1    2 1
   2    1   23 1
   3    1   24 1
   4    2    3 2
   5    2    6 1
   6    3    4 1
   7    4    5 2
   8    4   16 1
   9    5    6 1
  10    5   25 1
  11    6    7 1
  12    7    8 1
  13    7   26 1
  14    7   27 1
  15    8    9 ar
  16    8   13 ar
  17    9   10 ar
  18    9   14 1
  19   10   11 ar
  20   10   28 1
  21   11   12 ar
  22   11   29 1
  23   12   13 ar
  24   12   30 1
  25   13   31 1
  26   14   15 1
  27   15   32 1
  28   15   33 1
  29   15   34 1
  30   16   17 ar
  31   16   21 ar
  32   17   18 ar
  33   17   35 1
  34   18   19 ar
  35   18   36 1
  36   19   20 ar
  37   19   22 1
  38   20   21 ar
  39   20   37 1
  40   21   38 1

#	End of record

