#	Name: ASD01420130
#	Creating user name:	WinNT
#	Creation time:	15. 06. 2019 19:20

#	Modifying user name:	WinNT
#	Modification time:	15. 06. 2019 19:20

#	Program:	/corina/corina34_cracker 3.40 0067  02.08.2006

@<TRIPOS>MOLECULE
ASD01420130
  27   27    0    0    0
SMALL
NO_CHARGES


@<TRIPOS>ATOM
   1 N1            -0.0179     1.4653     0.0101 N.3     
   2 C2             0.0021    -0.0041     0.0020 C.3     
   3 C3             0.7337    -0.4948    -1.2495 C.3     
   4 N4             2.0995     0.0476    -1.2596 N.3     
   5 C5             2.0796     1.5170    -1.2515 C.3     
   6 C6             1.3479     2.0078    -0.0000 C.3     
   7 C7             2.8599    -0.4622    -2.4084 C.3     
   8 C8             4.1278     0.2766    -2.5245 C.1     
   9 C9             5.1390     0.8658    -2.6171 C.1     
  10 C10           -0.7783     1.9752     1.1589 C.3     
  11 C11           -0.5713     3.4865     1.2773 C.3     
  12 H12            0.5192    -0.3656     0.8908 H       
  13 H13           -1.0204    -0.3816    -0.0030 H       
  14 H14            0.7751    -1.5840    -1.2430 H       
  15 H15            0.2013    -0.1561    -2.1383 H       
  16 H16            3.1021     1.8946    -1.2465 H       
  17 H17            1.5625     1.8786    -2.1404 H       
  18 H18            1.3066     3.0970    -0.0066 H       
  19 H19            1.8803     1.6690     0.8887 H       
  20 H20            3.0690    -1.5222    -2.2642 H       
  21 H21            2.2763    -0.3277    -3.3191 H       
  22 H22            6.0433     1.3929    -2.7000 H       
  23 H23           -1.8380     1.7637     1.0160 H       
  24 H24           -0.4303     1.4884     2.0699 H       
  25 H25           -1.1356     3.8648     2.1297 H       
  26 H26            0.4883     3.6981     1.4202 H       
  27 H27           -0.9194     3.9734     0.3662 H       
@<TRIPOS>BOND
   1    1    2 1
   2    1    6 1
   3    1   10 1
   4    2    3 1
   5    2   12 1
   6    2   13 1
   7    3    4 1
   8    3   14 1
   9    3   15 1
  10    4    5 1
  11    4    7 1
  12    5    6 1
  13    5   16 1
  14    5   17 1
  15    6   18 1
  16    6   19 1
  17    7    8 1
  18    7   20 1
  19    7   21 1
  20    8    9 3
  21    9   22 1
  22   10   11 1
  23   10   23 1
  24   10   24 1
  25   11   25 1
  26   11   26 1
  27   11   27 1

#	End of record

