#	Name: ASD00310381
#	Creating user name:	WinNT
#	Creation time:	15. 06. 2019 18:34

#	Modifying user name:	WinNT
#	Modification time:	15. 06. 2019 18:34

#	Program:	/corina/corina34_cracker 3.40 0067  02.08.2006

@<TRIPOS>MOLECULE
ASD00310381
  43   46    0    0    0
SMALL
NO_CHARGES


@<TRIPOS>ATOM
   1 N1            -0.0163     1.3503     0.0061 N.pl3   
   2 C2             0.0019    -0.0038    -0.0181 C.2     
   3 C3             1.2917    -0.4479    -0.0407 C.2     
   4 C4             2.1473     0.7543    -0.0293 C.ar    
   5 C5             3.5228     0.9581    -0.0414 C.ar    
   6 C6             4.0248     2.2531    -0.0243 C.ar    
   7 C7             3.1475     3.3439     0.0051 C.ar    
   8 C8             1.7849     3.1437     0.0176 C.ar    
   9 C9             1.2694     1.8504     0.0002 C.ar    
  10 C10            1.7396    -1.8448    -0.0699 C.2     
  11 O11            2.9280    -2.1020    -0.0877 O.2     
  12 O12            0.8335    -2.8434    -0.0769 O.3     
  13 C13            5.4908     2.4805    -0.0366 C.ar    
  14 C14            6.0529     3.3695    -0.9508 C.ar    
  15 C15            7.4173     3.5775    -0.9574 C.ar    
  16 C16            8.2264     2.9053    -0.0592 C.ar    
  17 C17            7.6738     2.0215     0.8502 C.ar    
  18 C18            6.3101     1.8104     0.8699 C.ar    
  19 C19            9.7155     3.1363    -0.0716 C.3     
  20 C20           10.1102     4.6172     0.0553 C.3     
  21 C21           11.2488     4.1532     0.9790 C.3     
  22 C22           10.3836     2.9223     1.2969 C.3     
  23 C23           10.4198     2.4106    -1.2198 C.3     
  24 O24           10.0175     1.0394    -1.2345 O.3     
  25 F25            3.6409     4.6014     0.0217 F       
  26 H26           -0.8206     1.8924     0.0212 H       
  27 H27           -0.8731    -0.6369    -0.0189 H       
  28 H28            4.1968     0.1145    -0.0637 H       
  29 H29            1.1155     3.9909     0.0410 H       
  30 H30            1.1765    -3.7473    -0.0963 H       
  31 H31            5.4222     3.8943    -1.6530 H       
  32 H32            7.8540     4.2662    -1.6655 H       
  33 H33            8.3103     1.4990     1.5490 H       
  34 H34            5.8792     1.1234     1.5832 H       
  35 H35           10.4581     5.0580    -0.8789 H       
  36 H36            9.3605     5.2273     0.5590 H       
  37 H37           12.1708     3.9138     0.4492 H       
  38 H38           11.4096     4.8071     1.8362 H       
  39 H39            9.7086     3.0690     2.1400 H       
  40 H40           10.9521     1.9948     1.3649 H       
  41 H41           10.1490     2.8789    -2.1660 H       
  42 H42           11.4991     2.4711    -1.0802 H       
  43 H43           10.4260     0.5173    -1.9385 H       
@<TRIPOS>BOND
   1    1    2 1
   2    1    9 1
   3    1   26 1
   4    2    3 2
   5    2   27 1
   6    3    4 1
   7    3   10 1
   8    4    5 ar
   9    4    9 ar
  10    5    6 ar
  11    5   28 1
  12    6    7 ar
  13    6   13 1
  14    7    8 ar
  15    7   25 1
  16    8    9 ar
  17    8   29 1
  18   10   11 2
  19   10   12 1
  20   12   30 1
  21   13   14 ar
  22   13   18 ar
  23   14   15 ar
  24   14   31 1
  25   15   16 ar
  26   15   32 1
  27   16   17 ar
  28   16   19 1
  29   17   18 ar
  30   17   33 1
  31   18   34 1
  32   19   20 1
  33   19   22 1
  34   19   23 1
  35   20   21 1
  36   20   35 1
  37   20   36 1
  38   21   22 1
  39   21   37 1
  40   21   38 1
  41   22   39 1
  42   22   40 1
  43   23   24 1
  44   23   41 1
  45   23   42 1
  46   24   43 1

#	End of record

