#	Name: ASD08150037
#	Creating user name:	WinNT
#	Creation time:	15. 06. 2019 21:15

#	Modifying user name:	WinNT
#	Modification time:	15. 06. 2019 21:15

#	Program:	/corina/corina34_cracker 3.40 0067  02.08.2006

@<TRIPOS>MOLECULE
ASD08150037
  43   47    0    0    0
SMALL
NO_CHARGES


@<TRIPOS>ATOM
   1 N1            -0.0155     1.2943     0.0092 N.2     
   2 C2             0.0021    -0.0041     0.0020 C.2     
   3 N3             1.1487    -0.7359    -0.0124 N.am    
   4 C4             2.3560    -0.1243    -0.0202 C.2     
   5 C5             2.3704     1.3449    -0.0129 C.ar    
   6 C6             3.5614     2.0709    -0.0195 C.ar    
   7 C7             3.5161     3.4494    -0.0117 C.ar    
   8 C8             2.2981     4.1155     0.0030 C.ar    
   9 C9             1.1115     3.4169     0.0097 C.ar    
  10 C10            1.1299     2.0209     0.0021 C.ar    
  11 O11            3.3901    -0.7667    -0.0323 O.2     
  12 C12            1.0792    -2.1356    -0.0188 C.ar    
  13 C13            1.0558    -2.8379     1.1815 C.ar    
  14 C14            0.9872    -4.2190     1.1705 C.ar    
  15 C15            0.9419    -4.9004    -0.0320 C.ar    
  16 C16            0.9654    -4.2042    -1.2262 C.ar    
  17 C17            1.0277    -2.8239    -1.2228 C.ar    
  18 F18            1.1006    -2.1719     2.3561 F       
  19 Cl19           5.0887     1.2459    -0.0368 Cl      
  20 C20           -1.3145    -0.7373     0.0106 C.3     
  21 N21           -3.9894     1.5402     0.7794 N.2     
  22 C22           -3.0705     0.6879     1.1299 C.2     
  23 N23           -2.4131     0.2317     0.0263 N.pl3   
  24 C24           -2.9686     0.8469    -1.0670 C.ar    
  25 N25           -2.7534     0.8048    -2.3776 N.ar    
  26 C26           -3.4758     1.5363    -3.2000 C.ar    
  27 N27           -4.4362     2.3381    -2.7778 N.ar    
  28 C28           -4.7238     2.4463    -1.4847 C.ar    
  29 C29           -3.9802     1.6847    -0.5675 C.ar    
  30 N30           -5.7319     3.2898    -1.0518 N.pl3   
  31 H31            4.4359     4.0155    -0.0168 H       
  32 H32            2.2811     5.1953     0.0096 H       
  33 H33            0.1704     3.9468     0.0215 H       
  34 H34            0.9694    -4.7658     2.1017 H       
  35 H35            0.8883    -5.9791    -0.0383 H       
  36 H36            0.9306    -4.7399    -2.1633 H       
  37 H37            1.0411    -2.2812    -2.1564 H       
  38 H38           -1.3904    -1.3582    -0.8820 H       
  39 H39           -1.3734    -1.3678     0.8979 H       
  40 H40           -2.8597     0.3867     2.1454 H       
  41 H41           -3.2751     1.4786    -4.2596 H       
  42 H42           -6.2380     3.8107    -1.6947 H       
  43 H43           -5.9324     3.3601    -0.1053 H       
@<TRIPOS>BOND
   1    1    2 2
   2    1   10 1
   3    2    3 1
   4    2   20 1
   5    3    4 am
   6    3   12 1
   7    4    5 1
   8    4   11 2
   9    5    6 ar
  10    5   10 ar
  11    6    7 ar
  12    6   19 1
  13    7    8 ar
  14    7   31 1
  15    8    9 ar
  16    8   32 1
  17    9   10 ar
  18    9   33 1
  19   12   13 ar
  20   12   17 ar
  21   13   14 ar
  22   13   18 1
  23   14   15 ar
  24   14   34 1
  25   15   16 ar
  26   15   35 1
  27   16   17 ar
  28   16   36 1
  29   17   37 1
  30   20   23 1
  31   20   38 1
  32   20   39 1
  33   21   22 2
  34   21   29 1
  35   22   23 1
  36   22   40 1
  37   23   24 1
  38   24   25 ar
  39   24   29 ar
  40   25   26 ar
  41   26   27 ar
  42   26   41 1
  43   27   28 ar
  44   28   29 ar
  45   28   30 1
  46   30   42 1
  47   30   43 1

#	End of record

