#	Name: ASD00170368
#	Creating user name:	WinNT
#	Creation time:	15. 06. 2019 18:32

#	Modifying user name:	WinNT
#	Modification time:	15. 06. 2019 18:32

#	Program:	/corina/corina34_cracker 3.40 0067  02.08.2006

@<TRIPOS>MOLECULE
ASD00170368
  32   33    0    0    0
SMALL
NO_CHARGES


@<TRIPOS>ATOM
   1 I1             0.0000     0.0000     0.0000 I       
   2 H2             0.0000     1.7100     0.0000 H       
   3 C3             8.6819    18.5150     6.0315 C.3     
   4 C4             8.5451    17.0144     6.0550 C.2     
   5 O5             8.5477    16.3913     5.0198 O.2     
   6 O6             8.4203    16.3700     7.2261 O.3     
   7 C7             8.4095    15.0114     7.1848 C.ar    
   8 C8             9.5988    14.3188     7.0046 C.ar    
   9 C9             9.5872    12.9379     6.9503 C.ar    
  10 C10            8.3857    12.2585     7.0769 C.ar    
  11 C11            8.3264    10.7675     6.9911 C.2     
  12 N12            9.3507     9.9197     7.0806 N.2     
  13 C13            9.0875     8.6533     6.9952 C.2     
  14 N14           10.0239     7.6351     7.0710 N.pl3   
  15 S15            7.3556     8.4271     6.7683 S.3     
  16 C16            7.1206    10.1647     6.8055 C.2     
  17 C17            5.8317    10.9306     6.6498 C.3     
  18 C18            5.8931    12.2110     7.4805 C.3     
  19 C19            7.1896    12.9473     7.2837 C.ar    
  20 C20            7.2104    14.3279     7.3289 C.ar    
  21 H21            8.7713    18.8556     5.0000 H       
  22 H22            7.8017    18.9673     6.4885 H       
  23 H23            9.5716    18.8075     6.5892 H       
  24 H24           10.5299    14.8571     6.9067 H       
  25 H25           10.5083    12.3918     6.8098 H       
  26 H26           10.9620     7.8472     7.1975 H       
  27 H27            9.7415     6.7100     6.9975 H       
  28 H28            5.6855    11.1856     5.6002 H       
  29 H29            5.0000    10.3150     6.9926 H       
  30 H30            5.0681    12.8618     7.1905 H       
  31 H31            5.7871    11.9551     8.5348 H       
  32 H32            6.2912    14.8764     7.4728 H       
@<TRIPOS>BOND
   1    1    2 1
   2    3    4 1
   3    3   21 1
   4    3   22 1
   5    3   23 1
   6    4    5 2
   7    4    6 1
   8    6    7 1
   9    7   20 ar
  10    7    8 ar
  11    8    9 ar
  12    8   24 1
  13    9   10 ar
  14    9   25 1
  15   10   19 ar
  16   10   11 1
  17   11   16 2
  18   11   12 1
  19   12   13 2
  20   13   14 1
  21   13   15 1
  22   14   26 1
  23   14   27 1
  24   15   16 1
  25   16   17 1
  26   17   18 1
  27   17   28 1
  28   17   29 1
  29   18   19 1
  30   18   30 1
  31   18   31 1
  32   19   20 ar
  33   20   32 1

#	End of record

