#	Name: ASD01208938
#	Creating user name:	WinNT
#	Creation time:	15. 06. 2019 19:10

#	Modifying user name:	WinNT
#	Modification time:	15. 06. 2019 19:10

#	Program:	/corina/corina34_cracker 3.40 0067  02.08.2006

@<TRIPOS>MOLECULE
ASD01208938
  49   52    0    0    0
SMALL
NO_CHARGES


@<TRIPOS>ATOM
   1 C1            -2.1633     1.6100    -0.9626 C.3     
   2 C2            -2.1462     0.0853    -1.1086 C.3     
   3 C3            -1.4119    -0.2847    -2.4010 C.3     
   4 C4            -2.0976     0.4045    -3.5835 C.3     
   5 O5            -2.1067     1.8174    -3.3697 O.3     
   6 C6            -2.8199     2.2260    -2.2007 C.3     
   7 C7            -1.4215    -0.5353     0.0875 C.3     
   8 C8            -1.5299    -2.0597     0.0146 C.3     
   9 C9            -0.7065    -2.6752     1.1166 C.2     
  10 N10            0.6325    -2.5222     1.1230 N.am    
  11 C11            1.4022    -3.1746     2.0798 C.2     
  12 N12           -2.9311    -2.4577     0.1715 N.pl3   
  13 N13            2.6921    -3.0956     2.1742 N.2     
  14 C14            3.2636    -3.7826     3.1466 C.2     
  15 C15            2.4142    -4.4748     3.9098 C.2     
  16 S16            0.7833    -4.1914     3.3069 S.3     
  17 Cl17           2.8418    -5.4750     5.2627 Cl      
  18 N18           -3.8364    -2.7133    -0.8665 N.2     
  19 C19           -4.9863    -3.0403    -0.3348 C.2     
  20 C20           -4.8503    -3.0036     1.0568 C.2     
  21 C21           -3.5760    -2.6484     1.3414 C.2     
  22 S22           -6.1132    -3.3637     2.2316 S.o2    
  23 C23           -5.9575    -5.1459     2.5317 C.3     
  24 O24           -5.7362    -2.6285     3.3878 O.2     
  25 O25           -7.3234    -3.0777     1.5440 O.2     
  26 C26           -7.0033    -5.8044     3.4337 C.3     
  27 C27           -7.0239    -6.0602     1.9254 C.3     
  28 O28           -1.2489    -3.3082     1.9976 O.2     
  29 H29           -2.7318     1.8845    -0.0741 H       
  30 H30           -1.1416     1.9785    -0.8707 H       
  31 H31           -3.1692    -0.2885    -1.1507 H       
  32 H32           -0.3750     0.0456    -2.3381 H       
  33 H33           -1.4431    -1.3652    -2.5411 H       
  34 H34           -1.5536     0.1792    -4.5009 H       
  35 H35           -3.1224     0.0434    -3.6704 H       
  36 H36           -3.8542     1.8887    -2.2695 H       
  37 H37           -2.7964     3.3129    -2.1219 H       
  38 H38           -0.3712    -0.2444     0.0668 H       
  39 H39           -1.8782    -0.1824     1.0121 H       
  40 H40           -1.1603    -2.4046    -0.9511 H       
  41 H41            1.0593    -1.9570     0.4603 H       
  42 H42            4.3311    -3.7848     3.3107 H       
  43 H43           -5.8852    -3.2944    -0.8768 H       
  44 H44           -3.1529    -2.5312     2.3282 H       
  45 H45           -4.9374    -5.5267     2.5827 H       
  46 H46           -6.6713    -6.6187     4.0777 H       
  47 H47           -7.7848    -5.1668     3.8468 H       
  48 H48           -7.8190    -5.5908     1.3461 H       
  49 H49           -6.7055    -7.0428     1.5771 H       
@<TRIPOS>BOND
   1    1    2 1
   2    1    6 1
   3    1   29 1
   4    1   30 1
   5    2    3 1
   6    2    7 1
   7    2   31 1
   8    3    4 1
   9    3   32 1
  10    3   33 1
  11    4    5 1
  12    4   34 1
  13    4   35 1
  14    5    6 1
  15    6   36 1
  16    6   37 1
  17    7    8 1
  18    7   38 1
  19    7   39 1
  20    8    9 1
  21    8   12 1
  22    8   40 1
  23    9   10 am
  24    9   28 2
  25   10   11 1
  26   10   41 1
  27   11   13 2
  28   11   16 1
  29   12   18 1
  30   12   21 1
  31   13   14 1
  32   14   15 2
  33   14   42 1
  34   15   16 1
  35   15   17 1
  36   18   19 2
  37   19   20 1
  38   19   43 1
  39   20   21 2
  40   20   22 1
  41   21   44 1
  42   22   23 1
  43   22   24 2
  44   22   25 2
  45   23   26 1
  46   23   27 1
  47   23   45 1
  48   26   27 1
  49   26   46 1
  50   26   47 1
  51   27   48 1
  52   27   49 1

#	End of record

