#	Name: ASD01913214
#	Creating user name:	WinNT
#	Creation time:	15. 06. 2019 20:01

#	Modifying user name:	WinNT
#	Modification time:	15. 06. 2019 20:01

#	Program:	/corina/corina34_cracker 3.40 0067  02.08.2006

@<TRIPOS>MOLECULE
ASD01913214
  50   53    0    0    0
SMALL
NO_CHARGES


@<TRIPOS>ATOM
   1 N1            -0.6664     2.4338    -2.0365 N.ar    
   2 C2            -0.9060     1.2675    -2.5942 C.ar    
   3 C3             0.0942     0.3195    -2.7039 C.ar    
   4 C4             1.3527     0.6182    -2.2106 C.ar    
   5 C5             1.5662     1.8623    -1.6262 C.ar    
   6 C6             2.9387     2.1632    -1.0821 C.3     
   7 N7             3.0388     3.5907    -0.7581 N.am    
   8 C8             1.9028     4.2038    -0.0501 C.3     
   9 C9             0.6847     4.1412    -0.9702 C.3     
  10 C10            0.5277     2.7627    -1.5583 C.ar    
  11 C11           -0.1807    -1.0148    -3.3481 C.3     
  12 F12           -1.5168    -1.0677    -3.7594 F       
  13 F13            0.6557    -1.1781    -4.4576 F       
  14 F14            0.0640    -2.0374    -2.4252 F       
  15 C15            4.1265     4.3116    -1.0953 C.2     
  16 O16            4.1396     5.5135    -0.9128 O.2     
  17 C17            5.3020     3.6417    -1.6862 C.ar    
  18 C18            6.0616     4.2940    -2.6563 C.ar    
  19 C19            7.1697     3.6568    -3.2103 C.ar    
  20 C20            7.5130     2.3621    -2.7872 C.ar    
  21 C21            6.7497     1.7227    -1.8211 C.ar    
  22 C22            5.6569     2.3551    -1.2688 C.ar    
  23 C23            7.9555     4.3190    -4.2076 C.1     
  24 C24            8.5997     4.8619    -5.0253 C.1     
  25 C25            9.3855     5.5241    -6.0226 C.ar    
  26 C26           10.4957     4.8778    -6.5734 C.ar    
  27 C27           11.2435     5.5310    -7.5356 C.ar    
  28 C28           10.8604     6.8097    -7.9190 C.ar    
  29 C29            9.7509     7.3910    -7.3335 C.ar    
  30 N30            9.0506     6.7473    -6.4222 N.ar    
  31 O31            8.5904     1.7369    -3.3234 O.3     
  32 C32            8.8811     0.4216    -2.8464 C.3     
  33 H33           -1.8943     1.0477    -2.9702 H       
  34 H34            2.1546    -0.1021    -2.2781 H       
  35 H35            3.1091     1.5738    -0.1812 H       
  36 H36            3.6894     1.9074    -1.8298 H       
  37 H37            1.6999     3.6526     0.8681 H       
  38 H38            2.1332     5.2427     0.1861 H       
  39 H39           -0.2093     4.3910    -0.3989 H       
  40 H40            0.8073     4.8637    -1.7770 H       
  41 H41            5.7919     5.2893    -2.9774 H       
  42 H42            7.0154     0.7271    -1.4976 H       
  43 H43            5.0699     1.8534    -0.5137 H       
  44 H44           10.7657     3.8828    -6.2518 H       
  45 H45           12.1068     5.0573    -7.9792 H       
  46 H46           11.4246     7.3456    -8.6680 H       
  47 H47            9.4519     8.3855    -7.6304 H       
  48 H48            9.0673     0.4573    -1.7730 H       
  49 H49            8.0329    -0.2331    -3.0464 H       
  50 H50            9.7648     0.0374    -3.3559 H       
@<TRIPOS>BOND
   1    1    2 ar
   2    1   10 ar
   3    2    3 ar
   4    2   33 1
   5    3    4 ar
   6    3   11 1
   7    4    5 ar
   8    4   34 1
   9    5    6 1
  10    5   10 ar
  11    6    7 1
  12    6   35 1
  13    6   36 1
  14    7    8 1
  15    7   15 am
  16    8    9 1
  17    8   37 1
  18    8   38 1
  19    9   10 1
  20    9   39 1
  21    9   40 1
  22   11   12 1
  23   11   13 1
  24   11   14 1
  25   15   16 2
  26   15   17 1
  27   17   18 ar
  28   17   22 ar
  29   18   19 ar
  30   18   41 1
  31   19   20 ar
  32   19   23 1
  33   20   21 ar
  34   20   31 1
  35   21   22 ar
  36   21   42 1
  37   22   43 1
  38   23   24 3
  39   24   25 1
  40   25   26 ar
  41   25   30 ar
  42   26   27 ar
  43   26   44 1
  44   27   28 ar
  45   27   45 1
  46   28   29 ar
  47   28   46 1
  48   29   30 ar
  49   29   47 1
  50   31   32 1
  51   32   48 1
  52   32   49 1
  53   32   50 1

#	End of record

