#	Name: ASD03330418
#	Creating user name:	WinNT
#	Creation time:	15. 06. 2019 20:37

#	Modifying user name:	WinNT
#	Modification time:	15. 06. 2019 20:37

#	Program:	/corina/corina34_cracker 3.40 0067  02.08.2006

@<TRIPOS>MOLECULE
ASD03330418
  54   56    0    0    0
SMALL
NO_CHARGES


@<TRIPOS>ATOM
   1 C1            -0.9899     0.9863    -0.3336 C.3     
   2 N2            -0.5104    -0.3893    -0.1395 N.3     
   3 C3             0.0287    -0.9469    -1.3930 C.3     
   4 C4             1.0004     0.0517    -1.9671 C.2     
   5 N5             1.0707     1.3494    -1.5700 N.pl3   
   6 C6             0.2034     1.9282    -0.5400 C.3     
   7 C7             1.9395    -0.1259    -2.9297 C.2     
   8 N8             2.5724     1.0562    -3.1085 N.2     
   9 C9             2.0543     1.9468    -2.2926 C.2     
  10 C10            2.4718     3.3617    -2.1797 C.ar    
  11 C11            2.2196    -1.3803    -3.6505 C.2     
  12 O12            1.5783    -2.3826    -3.3988 O.2     
  13 C13            3.4650    -2.6639    -5.3054 C.3     
  14 N14            3.1865    -1.4168    -4.5888 N.am    
  15 C15            5.6948    -2.7092    -4.1792 C.3     
  16 C16            4.4328    -3.5186    -4.4846 C.3     
  17 C17            3.7620    -3.9316    -3.1730 C.3     
  18 C18            4.0841    -2.3474    -6.6424 C.2     
  19 C19           -1.5733    -1.2456     0.4034 C.3     
  20 O20            4.4957    -1.2297    -6.8707 O.2     
  21 N21            4.1806    -3.3066    -7.5843 N.am    
  22 C22            4.8815    -3.0313    -8.8410 C.3     
  23 C23            3.2641     3.9395    -3.1721 C.ar    
  24 C24            3.6501     5.2595    -3.0611 C.ar    
  25 C25            3.2533     6.0097    -1.9685 C.ar    
  26 C26            2.4680     5.4424    -0.9809 C.ar    
  27 C27            2.0702     4.1253    -1.0834 C.ar    
  28 H28           -1.6372     1.0242    -1.2098 H       
  29 H29           -1.5525     1.3014     0.5452 H       
  30 H30            0.5433    -1.8855    -1.1874 H       
  31 H31           -0.7836    -1.1184    -2.0993 H       
  32 H32           -0.1519     2.9060    -0.8652 H       
  33 H33            0.7576     2.0294     0.3931 H       
  34 H34            2.5348    -3.2117    -5.4563 H       
  35 H35            3.6979    -0.6175    -4.7895 H       
  36 H36            5.4264    -1.8179    -3.6120 H       
  37 H37            6.3843    -3.3180    -3.5945 H       
  38 H38            6.1727    -2.4149    -5.1136 H       
  39 H39            4.7012    -4.4098    -5.0518 H       
  40 H40            3.5860    -3.0472    -2.5607 H       
  41 H41            2.8114    -4.4192    -3.3889 H       
  42 H42            4.4109    -4.6227    -2.6350 H       
  43 H43           -2.4418    -1.2078    -0.2543 H       
  44 H44           -1.2136    -2.2723     0.4714 H       
  45 H45           -1.8534    -0.8922     1.3957 H       
  46 H46            3.7859    -4.1791    -7.4302 H       
  47 H47            4.8563    -3.9189    -9.4730 H       
  48 H48            4.3925    -2.2045    -9.3561 H       
  49 H49            5.9171    -2.7655    -8.6287 H       
  50 H50            3.5748     3.3548    -4.0253 H       
  51 H51            4.2637     5.7079    -3.8284 H       
  52 H52            3.5581     7.0426    -1.8862 H       
  53 H53            2.1620     6.0331    -0.1300 H       
  54 H54            1.4571     3.6835    -0.3117 H       
@<TRIPOS>BOND
   1    1    2 1
   2    1    6 1
   3    1   28 1
   4    1   29 1
   5    2    3 1
   6    2   19 1
   7    3    4 1
   8    3   30 1
   9    3   31 1
  10    4    5 1
  11    4    7 2
  12    5    6 1
  13    5    9 1
  14    6   32 1
  15    6   33 1
  16    7    8 1
  17    7   11 1
  18    8    9 2
  19    9   10 1
  20   10   23 ar
  21   10   27 ar
  22   11   12 2
  23   11   14 am
  24   13   14 1
  25   13   18 1
  26   13   16 1
  27   13   34 1
  28   14   35 1
  29   15   16 1
  30   15   36 1
  31   15   37 1
  32   15   38 1
  33   16   17 1
  34   16   39 1
  35   17   40 1
  36   17   41 1
  37   17   42 1
  38   18   20 2
  39   18   21 am
  40   19   43 1
  41   19   44 1
  42   19   45 1
  43   21   22 1
  44   21   46 1
  45   22   47 1
  46   22   48 1
  47   22   49 1
  48   23   24 ar
  49   23   50 1
  50   24   25 ar
  51   24   51 1
  52   25   26 ar
  53   25   52 1
  54   26   27 ar
  55   26   53 1
  56   27   54 1

#	End of record

