#	Name: ASD01890043
#	Creating user name:	WinNT
#	Creation time:	15. 06. 2019 19:50

#	Modifying user name:	WinNT
#	Modification time:	15. 06. 2019 19:50

#	Program:	/corina/corina34_cracker 3.40 0067  02.08.2006

@<TRIPOS>MOLECULE
ASD01890043
  15   16    0    0    0
SMALL
NO_CHARGES


@<TRIPOS>ATOM
   1 C1            -0.0179     1.4719     0.0101 C.2     
   2 C2             0.0021    -0.0041     0.0020 C.ar    
   3 C3            -1.3490    -0.4099     0.0122 C.ar    
   4 C4            -2.1456     0.8336     0.0262 C.2     
   5 C5            -1.6631    -1.7593     0.0074 C.ar    
   6 C6            -0.6450    -2.7024    -0.0073 C.ar    
   7 C7             0.6799    -2.3036    -0.0169 C.ar    
   8 C8             1.0084    -0.9578    -0.0127 C.ar    
   9 O9             0.9582     2.1938     0.0047 O.2     
  10 O10           -3.3578     0.8987     0.0377 O.2     
  11 O11           -1.3012     1.8840     0.0187 O.3     
  12 Cl12          -1.0365    -4.3936    -0.0134 Cl      
  13 H13           -2.6956    -2.0759     0.0156 H       
  14 H14            1.4634    -3.0468    -0.0280 H       
  15 H15            2.0444    -0.6526    -0.0206 H       
@<TRIPOS>BOND
   1    1    2 1
   2    1    9 2
   3    1   11 1
   4    2    3 ar
   5    2    8 ar
   6    3    4 1
   7    3    5 ar
   8    4   10 2
   9    4   11 1
  10    5    6 ar
  11    5   13 1
  12    6    7 ar
  13    6   12 1
  14    7    8 ar
  15    7   14 1
  16    8   15 1

#	End of record

