#	Name: ASD01720016
#	Creating user name:	WinNT
#	Creation time:	15. 06. 2019 19:23

#	Modifying user name:	WinNT
#	Modification time:	15. 06. 2019 19:23

#	Program:	/corina/corina34_cracker 3.40 0067  02.08.2006

@<TRIPOS>MOLECULE
ASD01720016
  18   17    0    0    0
SMALL
NO_CHARGES


@<TRIPOS>ATOM
   1 O1             0.0021    -0.0041     0.0020 O.2     
   2 C2            -0.0143     1.2034     0.0087 C.2     
   3 C3             1.2804     1.9746     0.0004 C.3     
   4 C4             1.2839     2.9527    -1.1760 C.3     
   5 C5             2.5984     3.7357    -1.1844 C.3     
   6 O6             2.6741     4.5519    -0.0139 O.3     
   7 C7             2.6556     4.6230    -2.4295 C.3     
   8 O8             3.9301     5.2655    -2.4984 O.3     
   9 H9            -0.9568     1.7306     0.0160 H       
  10 H10            1.3792     2.5286     0.9339 H       
  11 H11            2.1155     1.2815    -0.1008 H       
  12 H12            1.1851     2.3987    -2.1095 H       
  13 H13            0.4488     3.6459    -1.0748 H       
  14 H14            3.4364     3.0387    -1.1961 H       
  15 H15            1.9580     5.1973     0.0626 H       
  16 H16            2.5088     4.0106    -3.3191 H       
  17 H17            1.8709     5.3775    -2.3743 H       
  18 H18            4.0374     5.8454    -3.2648 H       
@<TRIPOS>BOND
   1    1    2 2
   2    2    3 1
   3    2    9 1
   4    3    4 1
   5    3   10 1
   6    3   11 1
   7    4    5 1
   8    4   12 1
   9    4   13 1
  10    5    6 1
  11    5    7 1
  12    5   14 1
  13    6   15 1
  14    7    8 1
  15    7   16 1
  16    7   17 1
  17    8   18 1

#	End of record

