#	Name: ASD03240460
#	Creating user name:	WinNT
#	Creation time:	15. 06. 2019 20:35

#	Modifying user name:	WinNT
#	Modification time:	15. 06. 2019 20:35

#	Program:	/corina/corina34_cracker 3.40 0067  02.08.2006

@<TRIPOS>MOLECULE
ASD03240460
  53   56    0    0    0
SMALL
NO_CHARGES


@<TRIPOS>ATOM
   1 C1             0.0330     1.4783    -0.0440 C.ar    
   2 C2            -2.3545     2.4336     2.2812 C.ar    
   3 C3            -1.4717     2.8755     1.3124 C.ar    
   4 C4            -1.3322     2.1133     0.0198 C.3     
   5 C5            -2.4861     3.1279     3.4668 C.ar    
   6 C6            -1.7280     4.2757     3.6867 C.ar    
   7 C7            -0.8408     4.7167     2.7075 C.ar    
   8 C8            -0.7169     4.0148     1.5255 C.ar    
   9 C9            -1.8657     5.0269     4.9600 C.2     
  10 C10           -1.1888     6.1601     5.3048 C.2     
  11 N11           -1.6016     6.5233     6.5358 N.pl3   
  12 N12           -2.5572     5.5958     6.9682 N.2     
  13 C13           -2.7235     4.7025     6.0290 C.2     
  14 C14            0.1585     0.1029     0.0162 C.ar    
  15 C15            1.1585     2.2714    -0.1685 C.ar    
  16 C16            2.4105     1.6899    -0.2334 C.ar    
  17 C17            2.5374     0.3124    -0.1732 C.ar    
  18 C18            1.4095    -0.4808    -0.0480 C.ar    
  19 C19           -1.5039     3.0731    -1.1593 C.3     
  20 N20           -1.4875     2.3147    -2.4126 N.am    
  21 C21           -1.6235     2.9560    -3.5902 C.2     
  22 F22            3.7608    -0.2572    -0.2369 F       
  23 O23           -1.7598     4.1633    -3.6123 O.2     
  24 O24           -1.6084     2.2591    -4.7420 O.3     
  25 C25           -1.7601     3.0154    -5.9721 C.3     
  26 C26           -1.7191     2.0745    -7.1486 C.ar    
  27 C27           -2.8882     1.5100    -7.6233 C.ar    
  28 C28           -0.5130     1.7803    -7.7566 C.ar    
  29 C29           -0.4753     0.9172    -8.8357 C.ar    
  30 C30           -1.6437     0.3480    -9.3066 C.ar    
  31 C31           -2.8506     0.6469    -8.7025 C.ar    
  32 H32           -2.9450     1.5461     2.1078 H       
  33 H33           -2.0964     1.3376    -0.0288 H       
  34 H34           -3.1759     2.7821     4.2225 H       
  35 H35           -0.2507     5.6059     2.8730 H       
  36 H36           -0.0291     4.3556     0.7657 H       
  37 H37           -0.4551     6.6734     4.7009 H       
  38 H38           -1.2901     7.2939     7.0358 H       
  39 H39           -3.3962     3.8586     6.0686 H       
  40 H40           -0.7215    -0.5157     0.1138 H       
  41 H41            1.0593     3.3458    -0.2155 H       
  42 H42            3.2895     2.3096    -0.3314 H       
  43 H43            1.5073    -1.5554    -0.0006 H       
  44 H44           -2.4544     3.5982    -1.0648 H       
  45 H45           -0.6880     3.7959    -1.1612 H       
  46 H46           -1.3787     1.3510    -2.3950 H       
  47 H47           -2.7151     3.5407    -5.9602 H       
  48 H48           -0.9488     3.7383    -6.0566 H       
  49 H49           -3.8311     1.7431    -7.1509 H       
  50 H50            0.3999     2.2250    -7.3887 H       
  51 H51            0.4669     0.6879    -9.3112 H       
  52 H52           -1.6143    -0.3260   -10.1500 H       
  53 H53           -3.7634     0.2022    -9.0704 H       
@<TRIPOS>BOND
   1    1   14 ar
   2    1   15 ar
   3    1    4 1
   4    2    3 ar
   5    2    5 ar
   6    2   32 1
   7    3    4 1
   8    3    8 ar
   9    4   19 1
  10    4   33 1
  11    5    6 ar
  12    5   34 1
  13    6    7 ar
  14    6    9 1
  15    7    8 ar
  16    7   35 1
  17    8   36 1
  18    9   10 2
  19    9   13 1
  20   10   11 1
  21   10   37 1
  22   11   12 1
  23   11   38 1
  24   12   13 2
  25   13   39 1
  26   14   18 ar
  27   14   40 1
  28   15   16 ar
  29   15   41 1
  30   16   17 ar
  31   16   42 1
  32   17   18 ar
  33   17   22 1
  34   18   43 1
  35   19   20 1
  36   19   44 1
  37   19   45 1
  38   20   21 am
  39   20   46 1
  40   21   23 2
  41   21   24 1
  42   24   25 1
  43   25   26 1
  44   25   47 1
  45   25   48 1
  46   26   27 ar
  47   26   28 ar
  48   27   31 ar
  49   27   49 1
  50   28   29 ar
  51   28   50 1
  52   29   30 ar
  53   29   51 1
  54   30   31 ar
  55   30   52 1
  56   31   53 1

#	End of record

