#	Name: ASD01870081
#	Creating user name:	WinNT
#	Creation time:	15. 06. 2019 19:38

#	Modifying user name:	WinNT
#	Modification time:	15. 06. 2019 19:38

#	Program:	/corina/corina34_cracker 3.40 0067  02.08.2006

@<TRIPOS>MOLECULE
ASD01870081
  39   41    0    0    0
SMALL
NO_CHARGES


@<TRIPOS>ATOM
   1 C1            -0.0259     1.4005    -0.0101 C.ar    
   2 C2            -0.0092     0.0078    -0.0213 C.ar    
   3 C3             1.1655    -0.6813    -0.0355 C.ar    
   4 C4             2.3846     0.0161    -0.0395 C.ar    
   5 C5             2.3658     1.4341    -0.0287 C.ar    
   6 C6             1.1350     2.1124    -0.0136 C.ar    
   7 N7             3.5501    -0.6426    -0.0529 N.ar    
   8 C8             4.6971    -0.0127    -0.0565 C.ar    
   9 C9             4.7632     1.3964    -0.0460 C.ar    
  10 C10            3.5828     2.1358    -0.0327 C.ar    
  11 C11            6.0656     2.0781    -0.0499 C.2     
  12 Cl12           6.1700    -0.9314    -0.0741 Cl      
  13 C13            6.1216     3.4275    -0.0397 C.2     
  14 C14            7.4175     4.1059    -0.0436 C.2     
  15 O15            8.4448     3.4568     0.0389 O.2     
  16 C16            7.4802     5.5758    -0.1473 C.2     
  17 C17            7.6450     6.3167    -1.2819 C.2     
  18 O18            7.6469     7.6102    -0.9441 O.3     
  19 C19            7.4886     7.7594     0.3805 C.2     
  20 C20            7.3719     6.5494     0.9486 C.2     
  21 C21           -1.3124    -0.7490    -0.0171 C.3     
  22 C22            7.1785     6.2494     2.4127 C.3     
  23 C23            7.7993     5.7696    -2.6776 C.3     
  24 H24           -0.9714     1.9224    -0.0031 H       
  25 H25            1.1595    -1.7613    -0.0433 H       
  26 H26            1.1101     3.1921    -0.0052 H       
  27 H27            3.6027     3.2156    -0.0247 H       
  28 H28            6.9777     1.4999    -0.0609 H       
  29 H29            5.2094     4.0057    -0.0287 H       
  30 H30            7.4558     8.7030     0.9047 H       
  31 H31           -1.6346    -0.9233    -1.0437 H       
  32 H32           -1.1756    -1.7051     0.4881 H       
  33 H33           -2.0694    -0.1659     0.5073 H       
  34 H34            6.1128     6.2163     2.6391 H       
  35 H35            7.6302     5.2860     2.6490 H       
  36 H36            7.6526     7.0290     3.0091 H       
  37 H37            6.8144     5.5862    -3.1069 H       
  38 H38            8.3355     6.4916    -3.2936 H       
  39 H39            8.3598     4.8355    -2.6417 H       
@<TRIPOS>BOND
   1    1    2 ar
   2    1    6 ar
   3    1   24 1
   4    2    3 ar
   5    2   21 1
   6    3    4 ar
   7    3   25 1
   8    4    5 ar
   9    4    7 ar
  10    5    6 ar
  11    5   10 ar
  12    6   26 1
  13    7    8 ar
  14    8    9 ar
  15    8   12 1
  16    9   10 ar
  17    9   11 1
  18   10   27 1
  19   11   13 2
  20   11   28 1
  21   13   14 1
  22   13   29 1
  23   14   15 2
  24   14   16 1
  25   16   17 2
  26   16   20 1
  27   17   18 1
  28   17   23 1
  29   18   19 1
  30   19   20 2
  31   19   30 1
  32   20   22 1
  33   21   31 1
  34   21   32 1
  35   21   33 1
  36   22   34 1
  37   22   35 1
  38   22   36 1
  39   23   37 1
  40   23   38 1
  41   23   39 1

#	End of record

