#	Name: ASD01911538
#	Creating user name:	WinNT
#	Creation time:	15. 06. 2019 19:57

#	Modifying user name:	WinNT
#	Modification time:	15. 06. 2019 19:57

#	Program:	/corina/corina34_cracker 3.40 0067  02.08.2006

@<TRIPOS>MOLECULE
ASD01911538
  22   23    0    0    0
SMALL
NO_CHARGES


@<TRIPOS>ATOM
   1 C1            -0.0168     1.3853     0.0097 C.ar    
   2 C2             0.0021    -0.0041     0.0020 C.ar    
   3 C3             1.2324    -0.6394    -0.0131 C.ar    
   4 C4             2.3831     0.1606    -0.0198 C.ar    
   5 N5             2.2623     1.4851    -0.0115 N.ar    
   6 N6             1.1165     2.0634     0.0025 N.ar    
   7 C7             3.6810    -0.4443    -0.0349 C.1     
   8 C8             4.7450    -0.9402    -0.0473 C.1     
   9 C9             6.0429    -1.5451    -0.0625 C.ar    
  10 C10            7.1894    -0.7464    -0.0691 C.ar    
  11 C11            8.4378    -1.3373    -0.0838 C.ar    
  12 C12            8.5533    -2.7187    -0.0919 C.ar    
  13 C13            7.4214    -3.5137    -0.0858 C.ar    
  14 C14            6.1685    -2.9368    -0.0649 C.ar    
  15 F15            9.5481    -0.5677    -0.0907 F       
  16 Cl16          -1.5326     2.2313     0.0214 Cl      
  17 H17           -0.9164    -0.5721     0.0081 H       
  18 H18            1.3030    -1.7171    -0.0192 H       
  19 H19            7.0997     0.3298    -0.0632 H       
  20 H20            9.5315    -3.1762    -0.1034 H       
  21 H21            7.5188    -4.5893    -0.0929 H       
  22 H22            5.2863    -3.5596    -0.0550 H       
@<TRIPOS>BOND
   1    1    2 ar
   2    1    6 ar
   3    1   16 1
   4    2    3 ar
   5    2   17 1
   6    3    4 ar
   7    3   18 1
   8    4    5 ar
   9    4    7 1
  10    5    6 ar
  11    7    8 3
  12    8    9 1
  13    9   10 ar
  14    9   14 ar
  15   10   11 ar
  16   10   19 1
  17   11   12 ar
  18   11   15 1
  19   12   13 ar
  20   12   20 1
  21   13   14 ar
  22   13   21 1
  23   14   22 1

#	End of record

