#	Name: ASD04882081
#	Creating user name:	WinNT
#	Creation time:	15. 06. 2019 20:54

#	Modifying user name:	WinNT
#	Modification time:	15. 06. 2019 20:54

#	Program:	/corina/corina34_cracker 3.40 0067  02.08.2006

@<TRIPOS>MOLECULE
ASD04882081
  79   83    0    0    0
SMALL
NO_CHARGES


@<TRIPOS>ATOM
   1 C1             2.1903     1.8442    -0.7953 C.ar    
   2 C2             2.2313     0.4669    -0.7054 C.ar    
   3 C3             1.0525    -0.2534    -0.5579 C.ar    
   4 C4            -0.1637     0.4151    -0.5013 C.ar    
   5 C5            -0.1975     1.7929    -0.5918 C.ar    
   6 C6             0.9775     2.5067    -0.7386 C.ar    
   7 C7            -1.4449    -0.3621    -0.3418 C.3     
   8 N8             1.0903    -1.6467    -0.4671 N.3     
   9 C9             0.6811    -2.0986     0.8701 C.3     
  10 C10            2.4240    -2.1607    -0.8084 C.3     
  11 C11            2.4023    -3.6906    -0.7744 C.3     
  12 N12            1.9931    -4.1426     0.5627 N.3     
  13 C13            0.6593    -3.6286     0.9040 C.3     
  14 C14            2.0308    -5.5316     0.6532 C.ar    
  15 C15            1.2439    -6.3038    -0.1930 C.ar    
  16 C16            2.8644    -6.1476     1.5913 C.ar    
  17 C17            2.9017    -7.5259     1.6809 C.ar    
  18 C18            2.1048    -8.3003     0.8323 C.ar    
  19 C19            1.2777    -7.6782    -0.1066 C.ar    
  20 N20            3.6619    -5.3680     2.4395 N.am    
  21 C21            3.9209    -5.7869     3.6941 C.2     
  22 C22            4.6645    -4.9168     4.6229 C.2     
  23 O23            3.5411    -6.8830     4.0599 O.2     
  24 N24            5.1478    -3.6735     4.3541 N.2     
  25 C25            5.7436    -3.2244     5.4179 C.2     
  26 O26            5.6663    -4.1448     6.3895 O.3     
  27 C27            4.9918    -5.2032     5.9125 C.2     
  28 C28            2.1415    -9.7722     0.9240 C.2     
  29 O29            2.8652   -10.3128     1.7380 O.2     
  30 N30            1.3729   -10.5178     0.1056 N.am    
  31 C31            1.4094   -11.9795     0.1967 C.3     
  32 C32            0.4515   -12.5789    -0.8349 C.3     
  33 C33            0.4896   -14.1054    -0.7397 C.3     
  34 N34           -0.4276   -14.6793    -1.7275 N.am    
  35 C35           -0.0502   -15.0321    -3.1012 C.3     
  36 C36           -1.3820   -15.1720    -3.8714 C.3     
  37 C37           -2.3685   -15.5242    -2.7340 C.3     
  38 C38           -1.7215   -14.9557    -1.4903 C.2     
  39 O39           -2.2895   -14.7695    -0.4350 O.2     
  40 C40            6.4162    -1.8814     5.5399 C.3     
  41 C41            4.6676    -6.4711     6.6597 C.3     
  42 F42            5.6992    -7.3980     6.4751 F       
  43 F43            4.5339    -6.1877     8.0232 F       
  44 F44            3.4689    -7.0048     6.1746 F       
  45 H45            3.1066     2.4051    -0.9055 H       
  46 H46            3.1786    -0.0498    -0.7501 H       
  47 H47           -1.1428     2.3133    -0.5478 H       
  48 H48            0.9483     3.5840    -0.8088 H       
  49 H49           -1.6334    -0.5386     0.7172 H       
  50 H50           -2.2709     0.2075    -0.7678 H       
  51 H51           -1.3573    -1.3174    -0.8593 H       
  52 H52            1.3892    -1.7284     1.6115 H       
  53 H53           -0.3144    -1.7157     1.0946 H       
  54 H54            2.6992    -1.8230    -1.8076 H       
  55 H55            3.1519    -1.7912    -0.0860 H       
  56 H56            1.6942    -4.0608    -1.5158 H       
  57 H57            3.3978    -4.0736    -0.9989 H       
  58 H58            0.3842    -3.9663     1.9032 H       
  59 H59           -0.0685    -3.9980     0.1817 H       
  60 H60            0.6041    -5.8252    -0.9196 H       
  61 H61            3.5452    -8.0040     2.4045 H       
  62 H62            0.6614    -8.2754    -0.7623 H       
  63 H63            4.0276    -4.5269     2.1239 H       
  64 H64            0.7956   -10.0866    -0.5437 H       
  65 H65            2.4222   -12.3307    -0.0009 H       
  66 H66            1.1062   -12.2889     1.1969 H       
  67 H67           -0.5613   -12.2277    -0.6373 H       
  68 H68            0.7547   -12.2695    -1.8351 H       
  69 H69            1.5024   -14.4566    -0.9373 H       
  70 H70            0.1864   -14.4148     0.2605 H       
  71 H71            0.5581   -14.2414    -3.5401 H       
  72 H72            0.4930   -15.9771    -3.1122 H       
  73 H73           -1.6570   -14.2317    -4.3491 H       
  74 H74           -1.3266   -15.9780    -4.6032 H       
  75 H75           -3.3373   -15.0570    -2.9110 H       
  76 H76           -2.4761   -16.6051    -2.6434 H       
  77 H77            5.6941    -1.1439     5.8904 H       
  78 H78            7.2393    -1.9505     6.2511 H       
  79 H79            6.8017    -1.5783     4.5664 H       
@<TRIPOS>BOND
   1    1    2 ar
   2    1    6 ar
   3    1   45 1
   4    2    3 ar
   5    2   46 1
   6    3    4 ar
   7    3    8 1
   8    4    5 ar
   9    4    7 1
  10    5    6 ar
  11    5   47 1
  12    6   48 1
  13    7   49 1
  14    7   50 1
  15    7   51 1
  16    8    9 1
  17    8   10 1
  18    9   13 1
  19    9   52 1
  20    9   53 1
  21   10   11 1
  22   10   54 1
  23   10   55 1
  24   11   12 1
  25   11   56 1
  26   11   57 1
  27   12   13 1
  28   12   14 1
  29   13   58 1
  30   13   59 1
  31   14   15 ar
  32   14   16 ar
  33   15   19 ar
  34   15   60 1
  35   16   17 ar
  36   16   20 1
  37   17   18 ar
  38   17   61 1
  39   18   19 ar
  40   18   28 1
  41   19   62 1
  42   20   21 am
  43   20   63 1
  44   21   22 1
  45   21   23 2
  46   22   24 1
  47   22   27 2
  48   24   25 2
  49   25   26 1
  50   25   40 1
  51   26   27 1
  52   27   41 1
  53   28   29 2
  54   28   30 am
  55   30   31 1
  56   30   64 1
  57   31   32 1
  58   31   65 1
  59   31   66 1
  60   32   33 1
  61   32   67 1
  62   32   68 1
  63   33   34 1
  64   33   69 1
  65   33   70 1
  66   34   35 1
  67   34   38 am
  68   35   36 1
  69   35   71 1
  70   35   72 1
  71   36   37 1
  72   36   73 1
  73   36   74 1
  74   37   38 1
  75   37   75 1
  76   37   76 1
  77   38   39 2
  78   40   77 1
  79   40   78 1
  80   40   79 1
  81   41   42 1
  82   41   43 1
  83   41   44 1

#	End of record

