#	Name: ASD03092230
#	Creating user name:	WinNT
#	Creation time:	15. 06. 2019 20:32

#	Modifying user name:	WinNT
#	Modification time:	15. 06. 2019 20:32

#	Program:	/corina/corina34_cracker 3.40 0067  02.08.2006

@<TRIPOS>MOLECULE
ASD03092230
  52   54    0    0    0
SMALL
NO_CHARGES


@<TRIPOS>ATOM
   1 N1            -0.3469     1.2708     0.1411 N.pl3   
   2 C2            -0.4167    -0.0711     0.2872 C.2     
   3 N3            -1.6857    -0.4210     0.2230 N.2     
   4 C4            -2.4422     0.6616     0.0385 C.2     
   5 N5            -1.6680     1.7215    -0.0124 N.2     
   6 C6             0.8659     2.0926     0.1477 C.3     
   7 C7             1.3755     2.2614    -1.2850 C.3     
   8 O8             0.4202     3.0034    -2.0460 O.3     
   9 C9             2.7080     3.0131    -1.2671 C.3     
  10 C10            3.2788     3.0730    -2.6854 C.3     
  11 C11            0.7297    -0.9862     0.4842 C.ar    
  12 C12            2.0275    -0.5981     0.1350 C.ar    
  13 C13            3.0674    -1.4828     0.3361 C.ar    
  14 N14            2.8499    -2.6782     0.8493 N.ar    
  15 C15            1.6422    -3.0837     1.1921 C.ar    
  16 C16            0.5463    -2.2613     1.0303 C.ar    
  17 N17           -3.8337     0.6681    -0.0766 N.pl3   
  18 C18           -4.5371    -0.5386    -0.1159 C.ar    
  19 C19           -3.9218    -1.6871    -0.5985 C.ar    
  20 C20           -4.6173    -2.8802    -0.6368 C.ar    
  21 C21           -5.9257    -2.9348    -0.1957 C.ar    
  22 C22           -6.5457    -1.7906     0.2875 C.ar    
  23 C23           -5.8500    -0.5930     0.3326 C.ar    
  24 C24            4.4704    -1.0778    -0.0362 C.3     
  25 O25           -7.8326    -1.8460     0.7205 O.3     
  26 C26           -8.4071    -0.6304     1.2047 C.3     
  27 C27           -3.9480    -4.1244    -1.1612 C.3     
  28 F28           -3.3183    -4.7948    -0.1070 F       
  29 F29           -4.9079    -4.9619    -1.7394 F       
  30 F30           -2.9963    -3.7714    -2.1240 F       
  31 H31            0.6392     3.0714     0.5704 H       
  32 H32            1.6319     1.6050     0.7507 H       
  33 H33            1.5178     1.2803    -1.7380 H       
  34 H34            0.2437     3.8888    -1.6997 H       
  35 H35            2.5490     4.0257    -0.8964 H       
  36 H36            3.4096     2.4933    -0.6147 H       
  37 H37            3.4378     2.0603    -3.0561 H       
  38 H38            2.5772     3.5927    -3.3378 H       
  39 H39            4.2281     3.6085    -2.6726 H       
  40 H40            2.2128     0.3790    -0.2861 H       
  41 H41            1.5101    -4.0713     1.6087 H       
  42 H42           -0.4395    -2.5999     1.3131 H       
  43 H43           -4.3121     1.5102    -0.1292 H       
  44 H44           -2.8994    -1.6471    -0.9442 H       
  45 H45           -6.4669    -3.8689    -0.2273 H       
  46 H46           -6.3308     0.2981     0.7083 H       
  47 H47            4.9494    -0.5999     0.8184 H       
  48 H48            5.0394    -1.9617    -0.3243 H       
  49 H49            4.4371    -0.3787    -0.8718 H       
  50 H50           -7.8277    -0.2677     2.0538 H       
  51 H51           -8.3968     0.1174     0.4118 H       
  52 H52           -9.4349    -0.8138     1.5180 H       
@<TRIPOS>BOND
   1    1    2 1
   2    1    6 1
   3    1    5 1
   4    2    3 2
   5    2   11 1
   6    3    4 1
   7    4    5 2
   8    4   17 1
   9    6    7 1
  10    6   31 1
  11    6   32 1
  12    7    8 1
  13    7    9 1
  14    7   33 1
  15    8   34 1
  16    9   10 1
  17    9   35 1
  18    9   36 1
  19   10   37 1
  20   10   38 1
  21   10   39 1
  22   11   12 ar
  23   11   16 ar
  24   12   13 ar
  25   12   40 1
  26   13   14 ar
  27   13   24 1
  28   14   15 ar
  29   15   16 ar
  30   15   41 1
  31   16   42 1
  32   17   18 1
  33   17   43 1
  34   18   19 ar
  35   18   23 ar
  36   19   20 ar
  37   19   44 1
  38   20   21 ar
  39   20   27 1
  40   21   22 ar
  41   21   45 1
  42   22   23 ar
  43   22   25 1
  44   23   46 1
  45   24   47 1
  46   24   48 1
  47   24   49 1
  48   25   26 1
  49   26   50 1
  50   26   51 1
  51   26   52 1
  52   27   28 1
  53   27   29 1
  54   27   30 1

#	End of record

