#	Name: ASD06390024
#	Creating user name:	WinNT
#	Creation time:	15. 06. 2019 21:06

#	Modifying user name:	WinNT
#	Modification time:	15. 06. 2019 21:06

#	Program:	/corina/corina34_cracker 3.40 0067  02.08.2006

@<TRIPOS>MOLECULE
ASD06390024
  51   52    0    0    0
SMALL
NO_CHARGES


@<TRIPOS>ATOM
   1 Cl1            4.6733     8.2696    -7.3175 Cl      
   2 Cl2            7.4355     9.6432    -7.7765 Cl      
   3 O3             0.0021    -0.0041     0.0020 O.2     
   4 S4            -0.0172     1.4168     0.0098 S.o2    
   5 N5             1.5819     1.8470    -0.0031 N.am    
   6 C6             1.9600     3.2621     0.0246 C.3     
   7 C7             3.2454     3.4305     0.8380 C.3     
   8 C8             3.6186     4.9152     0.8939 C.3     
   9 N9             3.7004     5.4343    -0.4782 N.am    
  10 C10            4.8080     6.0718    -0.9064 C.2     
  11 C11            4.8766     6.5984    -2.3167 C.3     
  12 N12            6.1732     7.2448    -2.5340 N.pl3   
  13 C13            6.4713     7.8129    -3.7755 C.ar    
  14 C14            5.5395     7.7654    -4.8038 C.ar    
  15 C15            5.8372     8.3282    -6.0308 C.ar    
  16 C16            7.0636     8.9383    -6.2343 C.ar    
  17 C17            7.9934     8.9865    -5.2106 C.ar    
  18 C18            7.6983     8.4311    -3.9811 C.ar    
  19 C19            8.7094     8.4898    -2.8651 C.3     
  20 C20            9.5285     7.1977    -2.8506 C.3     
  21 O21            5.7495     6.2216    -0.1566 O.2     
  22 C22            2.5520     5.2446    -1.3749 C.3     
  23 C23            2.1907     3.7563    -1.4053 C.3     
  24 C24           -0.6699     2.0532    -1.5585 C.3     
  25 C25           -2.1580     1.7147    -1.6664 C.3     
  26 O26           -0.5647     2.1360     1.1063 O.2     
  27 H27            2.2682     1.1620    -0.0291 H       
  28 H28            1.1604     3.8426     0.4847 H       
  29 H29            3.0873     3.0568     1.8496 H       
  30 H30            4.0516     2.8703     0.3645 H       
  31 H31            2.8558     5.4632     1.4470 H       
  32 H32            4.5840     5.0310     1.3865 H       
  33 H33            4.7599     5.7730    -3.0189 H       
  34 H34            4.0782     7.3239    -2.4728 H       
  35 H35            6.8248     7.2785    -1.8162 H       
  36 H36            4.5833     7.2890    -4.6453 H       
  37 H37            8.9491     9.4629    -5.3719 H       
  38 H38            9.3739     9.3396    -3.0213 H       
  39 H39            8.1925     8.6031    -1.9122 H       
  40 H40            8.8640     6.3479    -2.6945 H       
  41 H41           10.0454     7.0844    -3.8036 H       
  42 H42           10.2598     7.2401    -2.0434 H       
  43 H43            1.7022     5.8195    -1.0068 H       
  44 H44            2.8137     5.5778    -2.3792 H       
  45 H45            3.0069     3.1929    -1.8577 H       
  46 H46            1.2820     3.6144    -1.9904 H       
  47 H47           -0.5397     3.1348    -1.5940 H       
  48 H48           -0.1319     1.5951    -2.3885 H       
  49 H49           -2.2882     0.6331    -1.6309 H       
  50 H50           -2.6960     2.1728    -0.8364 H       
  51 H51           -2.5502     2.0971    -2.6088 H       
@<TRIPOS>BOND
   1    1   15 1
   2    2   16 1
   3    3    4 2
   4    4    5 am
   5    4   24 1
   6    4   26 2
   7    5    6 1
   8    5   27 1
   9    6    7 1
  10    6   23 1
  11    6   28 1
  12    7    8 1
  13    7   29 1
  14    7   30 1
  15    8    9 1
  16    8   31 1
  17    8   32 1
  18    9   10 am
  19    9   22 1
  20   10   11 1
  21   10   21 2
  22   11   12 1
  23   11   33 1
  24   11   34 1
  25   12   13 1
  26   12   35 1
  27   13   14 ar
  28   13   18 ar
  29   14   15 ar
  30   14   36 1
  31   15   16 ar
  32   16   17 ar
  33   17   18 ar
  34   17   37 1
  35   18   19 1
  36   19   20 1
  37   19   38 1
  38   19   39 1
  39   20   40 1
  40   20   41 1
  41   20   42 1
  42   22   23 1
  43   22   43 1
  44   22   44 1
  45   23   45 1
  46   23   46 1
  47   24   25 1
  48   24   47 1
  49   24   48 1
  50   25   49 1
  51   25   50 1
  52   25   51 1

#	End of record

