#	Name: ASD08170359
#	Creating user name:	WinNT
#	Creation time:	15. 06. 2019 21:17

#	Modifying user name:	WinNT
#	Modification time:	15. 06. 2019 21:17

#	Program:	/corina/corina34_cracker 3.40 0067  02.08.2006

@<TRIPOS>MOLECULE
ASD08170359
  69   72    0    0    0
SMALL
NO_CHARGES


@<TRIPOS>ATOM
   1 C1            -0.0155     1.2910     0.0091 C.2     
   2 N2             0.0021    -0.0041     0.0020 N.2     
   3 N3            -1.1192    -0.5842     0.0096 N.2     
   4 C4            -2.1834     0.1604     0.0237 C.2     
   5 S5            -1.7028     1.8047     0.0357 S.3     
   6 C6             1.1892     2.1964     0.0025 C.3     
   7 C7             2.8059     3.4301    -1.4489 C.3     
   8 C8             3.1936     3.7400    -2.8718 C.2     
   9 C9             4.3448     4.6111    -3.3336 C.3     
  10 C10            4.2435     4.5536    -4.8451 C.2     
  11 N11            3.2216     3.7886    -5.1026 N.2     
  12 N12            2.6155     3.3126    -3.9447 N.2     
  13 N13            5.0614     5.1801    -5.7560 N.am    
  14 C14            4.8391     5.0293    -7.0767 C.2     
  15 O15            3.9180     4.3411    -7.4618 O.2     
  16 C16            5.7354     5.7158    -8.0749 C.3     
  17 C17            7.1287     5.1513    -7.9705 C.ar    
  18 N18           -3.4954    -0.3008     0.0334 N.am    
  19 C19           -3.7441    -1.6254     0.0287 C.2     
  20 O20           -2.8238    -2.4152     0.0161 O.2     
  21 C21           -5.1658    -2.1251     0.0391 C.3     
  22 C22           -5.8506    -1.7185    -1.2402 C.ar    
  23 C23            8.0735     5.7833    -7.1839 C.ar    
  24 C24           -5.7280    -2.5053    -2.3701 C.ar    
  25 O25           -5.1691    -3.5728     0.1509 O.3     
  26 O26            5.2236     5.4967    -9.4159 O.3     
  27 C27            1.5828     2.5110    -1.4422 C.3     
  28 C28            9.3516     5.2655    -7.0882 C.ar    
  29 C29            9.6848     4.1153    -7.7788 C.ar    
  30 C30            8.7398     3.4828    -8.5647 C.ar    
  31 C31            7.4605     3.9982    -8.6570 C.ar    
  32 C32            5.4609     6.4570   -10.3233 C.2     
  33 O33            6.0760     7.4479   -10.0074 O.2     
  34 C34            4.9603     6.2993   -11.7359 C.3     
  35 C35           -6.2179    -4.1336     0.7733 C.2     
  36 C36           -6.2904    -5.6309     0.9271 C.3     
  37 O37           -7.1038    -3.4378     1.2103 O.2     
  38 C38           -6.6061    -0.5616    -1.2822 C.ar    
  39 C39           -7.2342    -0.1885    -2.4557 C.ar    
  40 C40           -7.1065    -0.9721    -3.5874 C.ar    
  41 C41           -6.3561    -2.1323    -3.5436 C.ar    
  42 H42            0.9501     3.1232     0.5240 H       
  43 H43            2.0193     1.7002     0.5054 H       
  44 H44            3.6360     2.9340    -0.9460 H       
  45 H45            2.5668     4.3569    -0.9274 H       
  46 H46            4.2191     5.6340    -2.9787 H       
  47 H47            5.2966     4.2006    -2.9964 H       
  48 H48            5.7982     5.7306    -5.4480 H       
  49 H49            5.7601     6.7853    -7.8657 H       
  50 H50           -4.2314     0.3309     0.0435 H       
  51 H51           -5.6963    -1.6940     0.8881 H       
  52 H52            7.8131     6.6819    -6.6443 H       
  53 H53           -5.1411    -3.4113    -2.3362 H       
  54 H54            1.8219     1.5842    -1.9637 H       
  55 H55            0.7527     3.0071    -1.9450 H       
  56 H56           10.0899     5.7597    -6.4741 H       
  57 H57           10.6836     3.7112    -7.7046 H       
  58 H58            9.0003     2.5844    -9.1046 H       
  59 H59            6.7222     3.5040    -9.2711 H       
  60 H60            4.4326     5.3502   -11.8305 H       
  61 H61            4.2812     7.1179   -11.9742 H       
  62 H62            5.8049     6.3156   -12.4247 H       
  63 H63           -5.8118    -5.9238     1.8615 H       
  64 H64           -7.3342    -5.9448     0.9396 H       
  65 H65           -5.7778    -6.1073     0.0914 H       
  66 H66           -6.7058     0.0506    -0.3981 H       
  67 H67           -7.8250     0.7150    -2.4884 H       
  68 H68           -7.5976    -0.6809    -4.5041 H       
  69 H69           -6.2564    -2.7445    -4.4277 H       
@<TRIPOS>BOND
   1    1    2 2
   2    1    6 1
   3    1    5 1
   4    2    3 1
   5    3    4 2
   6    4    5 1
   7    4   18 1
   8    6   27 1
   9    6   42 1
  10    6   43 1
  11    7    8 1
  12    7   27 1
  13    7   44 1
  14    7   45 1
  15    8    9 1
  16    8   12 2
  17    9   10 1
  18    9   46 1
  19    9   47 1
  20   10   11 2
  21   10   13 1
  22   11   12 1
  23   13   14 am
  24   13   48 1
  25   14   15 2
  26   14   16 1
  27   16   17 1
  28   16   26 1
  29   16   49 1
  30   17   23 ar
  31   17   31 ar
  32   18   19 am
  33   18   50 1
  34   19   20 2
  35   19   21 1
  36   21   22 1
  37   21   25 1
  38   21   51 1
  39   22   38 ar
  40   22   24 ar
  41   23   28 ar
  42   23   52 1
  43   24   41 ar
  44   24   53 1
  45   25   35 1
  46   26   32 1
  47   27   54 1
  48   27   55 1
  49   28   29 ar
  50   28   56 1
  51   29   30 ar
  52   29   57 1
  53   30   31 ar
  54   30   58 1
  55   31   59 1
  56   32   33 2
  57   32   34 1
  58   34   60 1
  59   34   61 1
  60   34   62 1
  61   35   36 1
  62   35   37 2
  63   36   63 1
  64   36   64 1
  65   36   65 1
  66   38   39 ar
  67   38   66 1
  68   39   40 ar
  69   39   67 1
  70   40   41 ar
  71   40   68 1
  72   41   69 1

#	End of record

