#	Name: ASD01190039
#	Creating user name:	WinNT
#	Creation time:	15. 06. 2019 19:07

#	Modifying user name:	WinNT
#	Modification time:	15. 06. 2019 19:07

#	Program:	/corina/corina34_cracker 3.40 0067  02.08.2006

@<TRIPOS>MOLECULE
ASD01190039
  49   52    0    0    0
SMALL
NO_CHARGES


@<TRIPOS>ATOM
   1 C1            -0.3040     1.7506    -0.8911 C.2     
   2 C2            -0.2818     0.2565    -0.6962 C.3     
   3 O3             0.7306     2.3824    -0.8548 O.2     
   4 N4            -1.4731     2.3841    -1.1113 N.am    
   5 C5             1.5934    -0.2408     0.7688 C.2     
   6 C6             2.9156    -0.6659     0.9839 C.2     
   7 C7             3.6848    -1.0215    -0.0849 C.2     
   8 C8             3.1390    -0.9549    -1.3745 C.2     
   9 C9             1.8619    -0.5411    -1.5472 C.2     
  10 N10            1.0978    -0.1876    -0.4822 N.am    
  11 C11            3.9737    -1.3433    -2.5676 C.3     
  12 C12            4.5323    -2.7528    -2.3621 C.3     
  13 O13            3.1632    -1.3190    -3.7442 O.3     
  14 N14            8.3220     2.2038    -2.9132 N.pl3   
  15 N15            8.9737     1.8628    -1.7235 N.2     
  16 C16            8.3136     0.9255    -1.1042 C.2     
  17 C17            7.1404     0.5992    -1.9087 C.ar    
  18 C18            6.0832    -0.3061    -1.7643 C.ar    
  19 C19            5.1130    -0.3691    -2.7221 C.ar    
  20 C20            5.1660     0.4563    -3.8387 C.ar    
  21 C21            6.1883     1.3478    -4.0020 C.ar    
  22 C22            7.1921     1.4348    -3.0413 C.ar    
  23 C23            8.7502     3.1778    -3.8246 C.ar    
  24 C24            9.3748     4.3308    -3.3677 C.ar    
  25 C25            9.7962     5.2897    -4.2677 C.ar    
  26 C26            9.5962     5.1020    -5.6252 C.ar    
  27 C27            8.9736     3.9528    -6.0829 C.ar    
  28 C28            8.5559     2.9889    -5.1866 C.ar    
  29 F29           10.0088     6.0415    -6.5040 F       
  30 F30            3.4746    -3.6572    -2.2186 F       
  31 F31            5.3071    -3.1134    -3.4697 F       
  32 F32            5.3258    -2.7767    -1.2102 F       
  33 O33            0.8925     0.0755     1.7166 O.2     
  34 H34           -0.8867    -0.0058     0.1718 H       
  35 H35           -0.6872    -0.2316    -1.5825 H       
  36 H36           -2.3001     1.8783    -1.1444 H       
  37 H37           -1.4874     3.3459    -1.2368 H       
  38 H38            3.3184    -0.7102     1.9850 H       
  39 H39            4.7031    -1.3505     0.0607 H       
  40 H40            1.4464    -0.4916    -2.5428 H       
  41 H41            2.7752    -0.4544    -3.9367 H       
  42 H42            8.5862     0.4708    -0.1633 H       
  43 H43            6.0354    -0.9516    -0.8997 H       
  44 H44            4.3897     0.3920    -4.5869 H       
  45 H45            6.2179     1.9834    -4.8747 H       
  46 H46            9.5306     4.4778    -2.3091 H       
  47 H47           10.2816     6.1868    -3.9127 H       
  48 H48            8.8183     3.8085    -7.1419 H       
  49 H49            8.0747     2.0906    -5.5443 H       
@<TRIPOS>BOND
   1    1    2 1
   2    1    3 2
   3    1    4 am
   4    2   10 1
   5    2   34 1
   6    2   35 1
   7    4   36 1
   8    4   37 1
   9    5    6 1
  10    5   10 am
  11    5   33 2
  12    6    7 2
  13    6   38 1
  14    7    8 1
  15    7   39 1
  16    8    9 2
  17    8   11 1
  18    9   10 1
  19    9   40 1
  20   11   12 1
  21   11   13 1
  22   11   19 1
  23   12   30 1
  24   12   31 1
  25   12   32 1
  26   13   41 1
  27   14   15 1
  28   14   22 1
  29   14   23 1
  30   15   16 2
  31   16   17 1
  32   16   42 1
  33   17   18 ar
  34   17   22 ar
  35   18   19 ar
  36   18   43 1
  37   19   20 ar
  38   20   21 ar
  39   20   44 1
  40   21   22 ar
  41   21   45 1
  42   23   24 ar
  43   23   28 ar
  44   24   25 ar
  45   24   46 1
  46   25   26 ar
  47   25   47 1
  48   26   27 ar
  49   26   29 1
  50   27   28 ar
  51   27   48 1
  52   28   49 1

#	End of record

