#	Name: ASD02562034
#	Creating user name:	WinNT
#	Creation time:	15. 06. 2019 20:25

#	Modifying user name:	WinNT
#	Modification time:	15. 06. 2019 20:25

#	Program:	/corina/corina34_cracker 3.40 0067  02.08.2006

@<TRIPOS>MOLECULE
ASD02562034
  41   42    0    0    0
SMALL
NO_CHARGES


@<TRIPOS>ATOM
   1 C1            -0.0170     1.4022     0.0098 C.2     
   2 C2             0.0021    -0.0041     0.0020 C.2     
   3 C3             1.1743    -0.6696    -0.0123 C.2     
   4 N4             2.3612     0.0114    -0.0195 N.pl3   
   5 C5             2.3736     1.3873    -0.0127 C.2     
   6 C6             1.1535     2.0938     0.0023 C.2     
   7 C7             3.6659    -0.4006    -0.0340 C.2     
   8 C8             4.4368     0.7161    -0.0358 C.2     
   9 N9             3.6353     1.7872    -0.0227 N.2     
  10 N10            4.1201    -1.7252    -0.0446 N.3     
  11 C11            5.9435     0.7449    -0.0496 C.3     
  12 C12            6.4281     1.4818    -1.2998 C.3     
  13 C13            6.4512     1.4697     1.1986 C.3     
  14 C14            2.9936    -2.6680    -0.0388 C.3     
  15 C15            3.5283    -4.1015    -0.0506 C.3     
  16 C16            2.3550    -5.0835    -0.0445 C.3     
  17 C17            2.8897    -6.5170    -0.0564 C.3     
  18 C18            1.7164    -7.4990    -0.0503 C.3     
  19 H19           -0.9586     1.9311     0.0171 H       
  20 H20           -0.9275    -0.5538     0.0079 H       
  21 H21            1.1768    -1.7496    -0.0178 H       
  22 H22            1.1487     3.1738     0.0074 H       
  23 H23            4.7278    -1.8928    -0.8325 H       
  24 H24            6.3264    -0.2757    -0.0580 H       
  25 H25            6.0453     2.5023    -1.2913 H       
  26 H26            7.5179     1.5026    -1.3098 H       
  27 H27            6.0664     0.9654    -2.1890 H       
  28 H28            6.1060     0.9447     2.0892 H       
  29 H29            7.5409     1.4905     1.1886 H       
  30 H30            6.0683     2.4902     1.2070 H       
  31 H31            2.3935    -2.5115     0.8576 H       
  32 H32            2.3770    -2.5029    -0.9223 H       
  33 H33            4.1284    -4.2581    -0.9470 H       
  34 H34            4.1449    -4.2667     0.8329 H       
  35 H35            1.7549    -4.9270     0.8518 H       
  36 H36            1.7384    -4.9184    -0.9281 H       
  37 H37            3.4898    -6.6735    -0.9527 H       
  38 H38            3.5063    -6.6821     0.8271 H       
  39 H39            1.1163    -7.3425     0.8460 H       
  40 H40            1.0998    -7.3339    -0.9338 H       
  41 H41            2.0973    -8.5202    -0.0587 H       
@<TRIPOS>BOND
   1    1    2 1
   2    1    6 2
   3    1   19 1
   4    2    3 2
   5    2   20 1
   6    3    4 1
   7    3   21 1
   8    4    5 1
   9    4    7 1
  10    5    6 1
  11    5    9 2
  12    6   22 1
  13    7    8 2
  14    7   10 1
  15    8    9 1
  16    8   11 1
  17   10   14 1
  18   10   23 1
  19   11   12 1
  20   11   13 1
  21   11   24 1
  22   12   25 1
  23   12   26 1
  24   12   27 1
  25   13   28 1
  26   13   29 1
  27   13   30 1
  28   14   15 1
  29   14   31 1
  30   14   32 1
  31   15   16 1
  32   15   33 1
  33   15   34 1
  34   16   17 1
  35   16   35 1
  36   16   36 1
  37   17   18 1
  38   17   37 1
  39   17   38 1
  40   18   39 1
  41   18   40 1
  42   18   41 1

#	End of record

