#	Name: ASD06590058
#	Creating user name:	WinNT
#	Creation time:	15. 06. 2019 21:06

#	Modifying user name:	WinNT
#	Modification time:	15. 06. 2019 21:06

#	Program:	/corina/corina34_cracker 3.40 0067  02.08.2006

@<TRIPOS>MOLECULE
ASD06590058
 197  199    0    0    0
SMALL
NO_CHARGES


@<TRIPOS>ATOM
   1 C1             0.0355     2.7159    -0.2225 C.2     
   2 O2             0.1372     1.5076    -0.1945 O.2     
   3 N3             2.4614     2.7195    -0.2858 N.am    
   4 C4             1.2723     3.5752    -0.2765 C.3     
   5 C5            -3.5465     3.2102    -0.7595 C.2     
   6 O6            -3.3847     4.3359    -1.1808 O.2     
   7 N7            -1.1839     3.2899    -0.2109 N.am    
   8 C8            -2.3864     2.4544    -0.1645 C.3     
   9 C9            -2.7027     2.0961     1.2889 C.3     
  10 O10           -3.0392     3.2833     2.0097 O.3     
  11 C11           -7.1821     2.8365    -0.8353 C.2     
  12 O12           -7.1619     1.9317    -0.0279 O.2     
  13 N13           -4.7638     2.6351    -0.8234 N.am    
  14 C14           -5.8915     3.3698    -1.4018 C.3     
  15 C15           -5.8899     3.1928    -2.9215 C.3     
  16 C16           -4.6373     3.8455    -3.5097 C.3     
  17 C17           -4.6357     3.6711    -5.0066 C.2     
  18 O18           -5.5433     3.0850    -5.5475 O.2     
  19 O19           -3.6260     4.1669    -5.7389 O.3     
  20 C20          -10.7362     3.1150    -1.6439 C.2     
  21 O21          -10.5106     3.6837    -2.6911 O.2     
  22 N22           -8.3588     3.3649    -1.2259 N.am    
  23 C23           -9.6134     2.8464    -0.6752 C.3     
  24 C24           -9.9113     3.5396     0.6558 C.3     
  25 C25           -8.8356     3.1657     1.6775 C.3     
  26 C26           -9.1334     3.8590     3.0085 C.3     
  27 C27           -8.0578     3.4850     4.0303 C.3     
  28 N28           -8.3437     4.1507     5.3082 N.3     
  29 C29          -14.3895     3.0385    -1.5397 C.2     
  30 O30          -14.4074     2.8749    -0.3381 O.2     
  31 N31          -11.9911     2.7234    -1.3464 N.am    
  32 C32          -13.0825     2.9846    -2.2880 C.3     
  33 C33          -13.1368     1.8648    -3.3292 C.3     
  34 C34          -11.8603     1.8899    -4.1722 C.3     
  35 C35          -11.9146     0.7701    -5.2133 C.3     
  36 C36          -10.6380     0.7952    -6.0563 C.3     
  37 N37          -10.6901    -0.2800    -7.0560 N.3     
  38 C38          -17.9383     2.9755    -2.4142 C.2     
  39 O39          -17.7050     2.7115    -3.5747 O.2     
  40 N40          -15.5384     3.2686    -2.2057 N.am    
  41 C41          -16.8089     3.3210    -1.4782 C.3     
  42 C42          -17.0204     4.7306    -0.9221 C.3     
  43 C43          -15.9598     5.0295     0.1059 C.ar    
  44 C44          -14.7670     5.6112    -0.2822 C.ar    
  45 C45          -13.7929     5.8858     0.6582 C.ar    
  46 C46          -14.0125     5.5777     1.9929 C.ar    
  47 O47          -13.0560     5.8472     2.9199 O.3     
  48 C48          -15.2104     4.9944     2.3798 C.ar    
  49 C49          -16.1833     4.7266     1.4363 C.ar    
  50 C50          -21.5552     3.4166    -2.3743 C.2     
  51 O51          -21.6487     3.6888    -1.1962 O.2     
  52 N52          -19.2078     2.9600    -1.9617 N.am    
  53 C53          -20.3152     2.7361    -2.8943 C.3     
  54 C54          -20.5750     1.2341    -3.0263 C.3     
  55 C55          -21.6118     0.9905    -4.1248 C.3     
  56 C56          -21.0301     1.4082    -5.4768 C.3     
  57 C57          -21.9749    -0.4953    -4.1629 C.3     
  58 C58          -24.7175     3.1919    -2.2421 C.2     
  59 O59          -24.3657     2.0354    -2.3400 O.2     
  60 N60          -22.5602     3.7227    -3.2186 N.am    
  61 C61          -23.8030     4.2990    -2.6995 C.3     
  62 C62          -24.4909     5.1056    -3.8027 C.3     
  63 C63          -23.6293     6.2849    -4.1744 C.2     
  64 C64          -23.7315     7.5326    -3.6899 C.2     
  65 N65          -22.7794     8.3336    -4.2593 N.pl3   
  66 C66          -22.0221     7.6023    -5.1467 C.ar    
  67 C67          -20.9492     7.9151    -5.9747 C.ar    
  68 C68          -20.3895     6.9376    -6.7683 C.ar    
  69 C69          -20.8855     5.6415    -6.7506 C.ar    
  70 C70          -21.9392     5.3123    -5.9450 C.ar    
  71 C71          -22.5174     6.2855    -5.1281 C.ar    
  72 C72          -28.0936     3.0037    -0.7455 C.2     
  73 O73          -28.2465     4.2022    -0.7372 O.2     
  74 N74          -25.9262     3.4871    -1.7241 N.am    
  75 C75          -26.8152     2.4109    -1.2795 C.3     
  76 O76          -29.0625     2.2003    -0.2791 O.3     
  77 C77            3.6895     3.2728    -0.3318 C.2     
  78 O78            3.8102     4.4791    -0.3656 O.2     
  79 C79           22.3955     2.2439    -0.7930 C.3     
  80 C80           21.1537     3.1375    -0.7834 C.3     
  81 C81           19.8980     2.2651    -0.7285 C.3     
  82 C82           18.6561     3.1588    -0.7188 C.3     
  83 C83           17.4004     2.2863    -0.6640 C.3     
  84 C84           16.1586     3.1800    -0.6543 C.3     
  85 C85           14.9029     2.3076    -0.5995 C.3     
  86 C86           13.6610     3.2012    -0.5898 C.3     
  87 C87           12.4053     2.3288    -0.5349 C.3     
  88 C88           11.1635     3.2225    -0.5253 C.3     
  89 C89            9.9077     2.3501    -0.4704 C.3     
  90 C90            8.6659     3.2437    -0.4607 C.3     
  91 C91            7.4102     2.3713    -0.4059 C.3     
  92 C92            6.1683     3.2650    -0.3962 C.3     
  93 C93            4.9126     2.3926    -0.3414 C.3     
  94 H94            2.3648     1.7547    -0.2588 H       
  95 H95            1.2541     4.1817    -1.1820 H       
  96 H96            1.3004     4.2268     0.5968 H       
  97 H97           -1.2653     4.2562    -0.2333 H       
  98 H98           -2.2167     1.5413    -0.7351 H       
  99 H99           -3.5435     1.4031     1.3176 H       
 100 H100          -1.8306     1.6285     1.7459 H       
 101 H101          -3.2520     3.1312     2.9407 H       
 102 H102          -4.8931     1.7348    -0.4864 H       
 103 H103          -5.7983     4.4284    -1.1592 H       
 104 H104          -5.8936     2.1300    -3.1635 H       
 105 H105          -6.7774     3.6646    -3.3432 H       
 106 H106          -4.6336     4.9082    -3.2677 H       
 107 H107          -3.7497     3.3737    -3.0880 H       
 108 H108          -3.6689     4.0302    -6.6953 H       
 109 H109          -8.3750     4.0885    -1.8717 H       
 110 H110          -9.5227     1.7723    -0.5131 H       
 111 H111          -9.9142     4.6199     0.5101 H       
 112 H112         -10.8869     3.2198     1.0217 H       
 113 H113          -8.8327     2.0855     1.8232 H       
 114 H114          -7.8600     3.4856     1.3115 H       
 115 H115          -9.1363     4.9392     2.8628 H       
 116 H116         -10.1091     3.5391     3.3745 H       
 117 H117          -8.0549     2.4048     4.1759 H       
 118 H118          -7.0821     3.8049     3.6643 H       
 119 H119          -7.6468     3.9194     6.0002 H       
 120 H120          -8.4156     5.1498     5.1873 H       
 121 H121         -12.1715     2.2686    -0.5088 H       
 122 H122         -12.9107     3.9377    -2.7882 H       
 123 H123         -13.2197     0.9026    -2.8239 H       
 124 H124         -14.0021     2.0114    -3.9756 H       
 125 H125         -11.7774     2.8521    -4.6775 H       
 126 H126         -10.9950     1.7433    -3.5257 H       
 127 H127         -11.9974    -0.1921    -4.7080 H       
 128 H128         -12.7798     0.9167    -5.8598 H       
 129 H129         -10.5551     1.7574    -6.5617 H       
 130 H130          -9.7727     0.6486    -5.4099 H       
 131 H131          -9.8575    -0.2845    -7.6259 H       
 132 H132         -10.8317    -1.1767    -6.6155 H       
 133 H133         -15.5240     3.3995    -3.1667 H       
 134 H134         -16.7866     2.6057    -0.6561 H       
 135 H135         -16.9541     5.4551    -1.7338 H       
 136 H136         -18.0045     4.7941    -0.4578 H       
 137 H137         -14.5965     5.8509    -1.3214 H       
 138 H138         -12.8611     6.3395     0.3545 H       
 139 H139         -13.1286     6.7265     3.3157 H       
 140 H140         -15.3835     4.7533     3.4182 H       
 141 H141         -17.1177     4.2766     1.7376 H       
 142 H142         -19.3881     3.0970    -1.0185 H       
 143 H143         -20.0571     3.1473    -3.8702 H       
 144 H144         -19.6459     0.7259    -3.2845 H       
 145 H145         -20.9506     0.8457    -2.0796 H       
 146 H146         -22.5062     1.5778    -3.9169 H       
 147 H147         -20.1756     0.7751    -5.7159 H       
 148 H148         -21.7911     1.2984    -6.2493 H       
 149 H149         -20.7090     2.4487    -5.4283 H       
 150 H150         -22.3893    -0.7929    -3.1997 H       
 151 H151         -22.7135    -0.6689    -4.9455 H       
 152 H152         -21.0805    -1.0827    -4.3708 H       
 153 H153         -22.4606     3.5614    -4.1699 H       
 154 H154         -23.5762     4.9539    -1.8582 H       
 155 H155         -24.6376     4.4727    -4.6779 H       
 156 H156         -25.4574     5.4603    -3.4447 H       
 157 H157         -24.4578     7.8563    -2.9592 H       
 158 H158         -22.6564     9.2763    -4.0665 H       
 159 H159         -20.5564     8.9209    -5.9958 H       
 160 H160         -19.5568     7.1826    -7.4108 H       
 161 H161         -20.4354     4.8871    -7.3788 H       
 162 H162         -22.3201     4.3017    -5.9368 H       
 163 H163         -26.2076     4.4121    -1.6458 H       
 164 H164         -26.3251     1.8362    -0.4935 H       
 165 H165         -27.0420     1.7560    -2.1208 H       
 166 H166         -29.8644     2.6267     0.0531 H       
 167 H167          23.2901     2.8654    -0.8321 H       
 168 H168          22.4138     1.6373     0.1124 H       
 169 H169          22.3674     1.5922    -1.6663 H       
 170 H170          21.1818     3.7892     0.0899 H       
 171 H171          21.1354     3.7440    -1.6889 H       
 172 H172          19.8699     1.6134    -1.6018 H       
 173 H173          19.9162     1.6586     0.1770 H       
 174 H174          18.6842     3.8104     0.1545 H       
 175 H175          18.6379     3.7653    -1.6243 H       
 176 H176          17.3723     1.6347    -1.5373 H       
 177 H177          17.4186     1.6798     0.2415 H       
 178 H178          16.1867     3.8317     0.2190 H       
 179 H179          16.1403     3.7865    -1.5598 H       
 180 H180          14.8748     1.6559    -1.4728 H       
 181 H181          14.9211     1.7011     0.3060 H       
 182 H182          13.6891     3.8529     0.2835 H       
 183 H183          13.6428     3.8078    -1.4953 H       
 184 H184          12.3772     1.6772    -1.4082 H       
 185 H185          12.4235     1.7223     0.3705 H       
 186 H186          11.1916     3.8741     0.3480 H       
 187 H187          11.1452     3.8290    -1.4308 H       
 188 H188           9.8796     1.6984    -1.3437 H       
 189 H189           9.9260     1.7436     0.4351 H       
 190 H190           8.6940     3.8954     0.4126 H       
 191 H191           8.6477     3.8503    -1.3662 H       
 192 H192           7.3821     1.7197    -1.2792 H       
 193 H193           7.4284     1.7648     0.4996 H       
 194 H194           6.1964     3.9166     0.4771 H       
 195 H195           6.1501     3.8715    -1.3017 H       
 196 H196           4.9309     1.7861     0.5641 H       
 197 H197           4.8845     1.7409    -1.2147 H       
@<TRIPOS>BOND
   1    1    2 2
   2    1    4 1
   3    1    7 am
   4    3    4 1
   5    3   77 am
   6    3   94 1
   7    4   95 1
   8    4   96 1
   9    5    6 2
  10    5    8 1
  11    5   13 am
  12    7    8 1
  13    7   97 1
  14    8    9 1
  15    8   98 1
  16    9   10 1
  17    9   99 1
  18    9  100 1
  19   10  101 1
  20   11   12 2
  21   11   14 1
  22   11   22 am
  23   13   14 1
  24   13  102 1
  25   14   15 1
  26   14  103 1
  27   15   16 1
  28   15  104 1
  29   15  105 1
  30   16   17 1
  31   16  106 1
  32   16  107 1
  33   17   18 2
  34   17   19 1
  35   19  108 1
  36   20   21 2
  37   20   23 1
  38   20   31 am
  39   22   23 1
  40   22  109 1
  41   23   24 1
  42   23  110 1
  43   24   25 1
  44   24  111 1
  45   24  112 1
  46   25   26 1
  47   25  113 1
  48   25  114 1
  49   26   27 1
  50   26  115 1
  51   26  116 1
  52   27   28 1
  53   27  117 1
  54   27  118 1
  55   28  119 1
  56   28  120 1
  57   29   30 2
  58   29   32 1
  59   29   40 am
  60   31   32 1
  61   31  121 1
  62   32   33 1
  63   32  122 1
  64   33   34 1
  65   33  123 1
  66   33  124 1
  67   34   35 1
  68   34  125 1
  69   34  126 1
  70   35   36 1
  71   35  127 1
  72   35  128 1
  73   36   37 1
  74   36  129 1
  75   36  130 1
  76   37  131 1
  77   37  132 1
  78   38   39 2
  79   38   41 1
  80   38   52 am
  81   40   41 1
  82   40  133 1
  83   41   42 1
  84   41  134 1
  85   42   43 1
  86   42  135 1
  87   42  136 1
  88   43   44 ar
  89   43   49 ar
  90   44   45 ar
  91   44  137 1
  92   45   46 ar
  93   45  138 1
  94   46   47 1
  95   46   48 ar
  96   47  139 1
  97   48   49 ar
  98   48  140 1
  99   49  141 1
 100   50   51 2
 101   50   53 1
 102   50   60 am
 103   52   53 1
 104   52  142 1
 105   53   54 1
 106   53  143 1
 107   54   55 1
 108   54  144 1
 109   54  145 1
 110   55   56 1
 111   55   57 1
 112   55  146 1
 113   56  147 1
 114   56  148 1
 115   56  149 1
 116   57  150 1
 117   57  151 1
 118   57  152 1
 119   58   59 2
 120   58   61 1
 121   58   74 am
 122   60   61 1
 123   60  153 1
 124   61   62 1
 125   61  154 1
 126   62   63 1
 127   62  155 1
 128   62  156 1
 129   63   64 2
 130   63   71 1
 131   64   65 1
 132   64  157 1
 133   65   66 1
 134   65  158 1
 135   66   67 ar
 136   66   71 ar
 137   67   68 ar
 138   67  159 1
 139   68   69 ar
 140   68  160 1
 141   69   70 ar
 142   69  161 1
 143   70   71 ar
 144   70  162 1
 145   72   73 2
 146   72   75 1
 147   72   76 1
 148   74   75 1
 149   74  163 1
 150   75  164 1
 151   75  165 1
 152   76  166 1
 153   77   78 2
 154   77   93 1
 155   79   80 1
 156   79  167 1
 157   79  168 1
 158   79  169 1
 159   80   81 1
 160   80  170 1
 161   80  171 1
 162   81   82 1
 163   81  172 1
 164   81  173 1
 165   82   83 1
 166   82  174 1
 167   82  175 1
 168   83   84 1
 169   83  176 1
 170   83  177 1
 171   84   85 1
 172   84  178 1
 173   84  179 1
 174   85   86 1
 175   85  180 1
 176   85  181 1
 177   86   87 1
 178   86  182 1
 179   86  183 1
 180   87   88 1
 181   87  184 1
 182   87  185 1
 183   88   89 1
 184   88  186 1
 185   88  187 1
 186   89   90 1
 187   89  188 1
 188   89  189 1
 189   90   91 1
 190   90  190 1
 191   90  191 1
 192   91   92 1
 193   91  192 1
 194   91  193 1
 195   92   93 1
 196   92  194 1
 197   92  195 1
 198   93  196 1
 199   93  197 1

#	End of record

