#	Name: ASD00170639
#	Creating user name:	WinNT
#	Creation time:	15. 06. 2019 18:32

#	Modifying user name:	WinNT
#	Modification time:	15. 06. 2019 18:32

#	Program:	/corina/corina34_cracker 3.40 0067  02.08.2006

@<TRIPOS>MOLECULE
ASD00170639
  40   43    0    0    0
SMALL
NO_CHARGES


@<TRIPOS>ATOM
   1 C1            -0.0145     1.2154    -0.0051 C.2     
   2 O2             0.5751     1.0276    -1.0560 O.2     
   3 C3             0.5609     0.7323     1.2556 C.2     
   4 C4             1.6930    -0.0236     1.3719 C.2     
   5 C5             2.0061    -0.3372     2.6741 C.2     
   6 C6             1.1609     0.1442     3.5925 C.2     
   7 S7            -0.0923     1.0399     2.8589 S.3     
   8 S8            -3.0692     3.7620     0.0730 S.3     
   9 C9            -1.3865     3.2823     0.1089 C.2     
  10 C10           -1.2937     1.9283    -0.0006 C.2     
  11 C11           -2.5890     1.2455    -0.1144 C.2     
  12 C12           -2.6027    -0.2705    -0.2160 C.3     
  13 S13           -4.1304    -0.8718    -0.9704 S.3     
  14 C14           -5.3985    -0.0873     0.0703 C.3     
  15 S15           -5.3474     1.6970    -0.2408 S.3     
  16 C16           -3.6229     2.0914    -0.1004 C.2     
  17 C17           -6.7585    -0.6286    -0.2878 C.ar    
  18 C18           -7.5173    -1.2767     0.6693 C.ar    
  19 C19           -8.7643    -1.7738     0.3436 C.ar    
  20 C20           -9.2552    -1.6224    -0.9451 C.ar    
  21 C21           -8.4920    -0.9717    -1.9036 C.ar    
  22 C22           -7.2479    -0.4714    -1.5714 C.ar    
  23 O23          -10.4816    -2.1109    -1.2681 O.3     
  24 C24          -10.9227    -1.9187    -2.6137 C.3     
  25 N25           -0.3140     4.1471     0.2295 N.pl3   
  26 H26            2.2833    -0.3430     0.5258 H       
  27 H27            2.8707    -0.9291     2.9358 H       
  28 H28            1.2612    -0.0096     4.6568 H       
  29 H29           -1.7557    -0.5944    -0.8207 H       
  30 H30           -2.5081    -0.6951     0.7834 H       
  31 H31           -5.1871    -0.2847     1.1212 H       
  32 H32           -7.1345    -1.3947     1.6723 H       
  33 H33           -9.3565    -2.2803     1.0914 H       
  34 H34           -8.8719    -0.8526    -2.9075 H       
  35 H35           -6.6553     0.0394    -2.3159 H       
  36 H36          -11.9140    -2.3549    -2.7369 H       
  37 H37          -10.9653    -0.8519    -2.8331 H       
  38 H38          -10.2252    -2.4027    -3.2973 H       
  39 H39           -0.4612     5.1059     0.2251 H       
  40 H40            0.5854     3.7949     0.3185 H       
@<TRIPOS>BOND
   1    1    2 2
   2    1    3 1
   3    1   10 1
   4    3    4 2
   5    3    7 1
   6    4    5 1
   7    4   26 1
   8    5    6 2
   9    5   27 1
  10    6    7 1
  11    6   28 1
  12    8    9 1
  13    8   16 1
  14    9   10 2
  15    9   25 1
  16   10   11 1
  17   11   12 1
  18   11   16 2
  19   12   13 1
  20   12   29 1
  21   12   30 1
  22   13   14 1
  23   14   15 1
  24   14   17 1
  25   14   31 1
  26   15   16 1
  27   17   18 ar
  28   17   22 ar
  29   18   19 ar
  30   18   32 1
  31   19   20 ar
  32   19   33 1
  33   20   21 ar
  34   20   23 1
  35   21   22 ar
  36   21   34 1
  37   22   35 1
  38   23   24 1
  39   24   36 1
  40   24   37 1
  41   24   38 1
  42   25   39 1
  43   25   40 1

#	End of record

