#	Name: ASD02198705
#	Creating user name:	WinNT
#	Creation time:	15. 06. 2019 20:20

#	Modifying user name:	WinNT
#	Modification time:	15. 06. 2019 20:20

#	Program:	/corina/corina34_cracker 3.40 0067  02.08.2006

@<TRIPOS>MOLECULE
ASD02198705
  53   57    0    0    0
SMALL
NO_CHARGES


@<TRIPOS>ATOM
   1 F1             2.2533    -1.7120     2.4711 F       
   2 C2            -0.0433     1.5018    -0.1149 C.2     
   3 C3            -0.0730     0.1620     0.0975 C.2     
   4 N4             1.0712    -0.5396     0.2599 N.pl3   
   5 N5             2.2357    -0.0048     0.2258 N.2     
   6 C6             2.4072     1.2847     0.0276 C.2     
   7 C7             1.2215     2.1358    -0.1604 C.2     
   8 C8             0.9797    -1.9189     0.4765 C.ar    
   9 C9             1.5806    -2.4894     1.5946 C.ar    
  10 C10            1.4889    -3.8519     1.8074 C.ar    
  11 C11            0.7975    -4.6501     0.9055 C.ar    
  12 C12            0.1983    -4.0797    -0.2108 C.ar    
  13 C13            0.2841    -2.7188    -0.4216 C.ar    
  14 C14            3.7642     1.8671    -0.0051 C.2     
  15 N15            4.3060     2.6072    -1.0182 N.pl3   
  16 N16            5.6079     2.9589    -0.6404 N.2     
  17 C17            5.8518     2.4592     0.5448 C.2     
  18 C18            4.7200     1.7715     0.9825 C.2     
  19 C19            3.6728     2.9519    -2.2191 C.ar    
  20 C20            3.8064     4.2351    -2.7328 C.ar    
  21 C21            3.1809     4.5718    -3.9171 C.ar    
  22 C22            2.4221     3.6327    -4.5914 C.ar    
  23 C23            2.2868     2.3542    -4.0822 C.ar    
  24 C24            2.9149     2.0094    -2.9015 C.ar    
  25 O25            1.3244     3.3389    -0.3483 O.2     
  26 N26            0.7046    -6.0299     1.1209 N.am    
  27 C27            1.2328    -6.6940     2.1581 C.2     
  28 C28            0.0059    -6.9866     0.2491 C.3     
  29 C29            0.2177    -8.3431     0.9488 C.3     
  30 O30            1.0015    -8.0114     2.1313 O.3     
  31 O31            1.8645    -6.1494     3.0418 O.2     
  32 C32           -1.4846    -6.6506     0.1681 C.3     
  33 C33            0.6322    -6.9983    -1.1468 C.3     
  34 H34           -0.9547     2.0653    -0.2495 H       
  35 H35           -1.0228    -0.3505     0.1379 H       
  36 H36            1.9550    -4.2958     2.6746 H       
  37 H37           -0.3388    -4.7015    -0.9118 H       
  38 H38           -0.1823    -2.2764    -1.2894 H       
  39 H39            6.7753     2.5656     1.0947 H       
  40 H40            4.6142     1.2519     1.9234 H       
  41 H41            4.3986     4.9691    -2.2065 H       
  42 H42            3.2841     5.5698    -4.3170 H       
  43 H43            1.9339     3.8985    -5.5173 H       
  44 H44            1.6929     1.6231    -4.6108 H       
  45 H45            2.8087     1.0107    -2.5043 H       
  46 H46           -0.7394    -8.7776     1.2376 H       
  47 H47            0.7682    -9.0253     0.3010 H       
  48 H48           -1.6091    -5.6466    -0.2375 H       
  49 H49           -1.9843    -7.3694    -0.4812 H       
  50 H50           -1.9220    -6.6964     1.1654 H       
  51 H51            1.6803    -7.2882    -1.0723 H       
  52 H52            0.1017    -7.7121    -1.7770 H       
  53 H53            0.5608    -6.0031    -1.5854 H       
@<TRIPOS>BOND
   1    1    9 1
   2    2    3 2
   3    2    7 1
   4    2   34 1
   5    3    4 1
   6    3   35 1
   7    4    5 1
   8    4    8 1
   9    5    6 2
  10    6    7 1
  11    6   14 1
  12    7   25 2
  13    8    9 ar
  14    8   13 ar
  15    9   10 ar
  16   10   11 ar
  17   10   36 1
  18   11   12 ar
  19   11   26 1
  20   12   13 ar
  21   12   37 1
  22   13   38 1
  23   14   15 1
  24   14   18 2
  25   15   16 1
  26   15   19 1
  27   16   17 2
  28   17   18 1
  29   17   39 1
  30   18   40 1
  31   19   20 ar
  32   19   24 ar
  33   20   21 ar
  34   20   41 1
  35   21   22 ar
  36   21   42 1
  37   22   23 ar
  38   22   43 1
  39   23   24 ar
  40   23   44 1
  41   24   45 1
  42   26   28 1
  43   26   27 am
  44   27   31 2
  45   27   30 1
  46   28   29 1
  47   28   32 1
  48   28   33 1
  49   29   30 1
  50   29   46 1
  51   29   47 1
  52   32   48 1
  53   32   49 1
  54   32   50 1
  55   33   51 1
  56   33   52 1
  57   33   53 1

#	End of record

