#	Name: ASD07930146
#	Creating user name:	WinNT
#	Creation time:	15. 06. 2019 21:11

#	Modifying user name:	WinNT
#	Modification time:	15. 06. 2019 21:11

#	Program:	/corina/corina34_cracker 3.40 0067  02.08.2006

@<TRIPOS>MOLECULE
ASD07930146
  61   66    0    0    0
SMALL
NO_CHARGES


@<TRIPOS>ATOM
   1 C1            -0.0616     1.7060    -0.0476 C.2     
   2 C2            -0.0544     0.2364     0.1251 C.2     
   3 N3             0.9309     2.2854    -0.8055 N.am    
   4 N4             1.1085    -0.4329    -0.0609 N.am    
   5 C5             2.3194     0.3319    -0.3912 C.3     
   6 C6             1.9474     1.4162    -1.4135 C.3     
   7 C7            -1.0349     2.4628     0.5286 C.2     
   8 C8            -1.0447     3.8541     0.3695 C.2     
   9 C9            -0.0642     4.4541    -0.3721 C.2     
  10 C10            0.9689     3.6169    -0.9868 C.2     
  11 O11           -1.0709    -0.3578     0.4281 O.2     
  12 O12            1.8541     4.1224    -1.6558 O.2     
  13 C13            0.8941     6.7038    -0.0890 C.2     
  14 N14            0.5603     7.9135    -0.4473 N.2     
  15 C15           -0.5913     7.8721    -1.1342 C.2     
  16 C16           -0.9915     6.5885    -1.2076 C.2     
  17 N17           -0.0517     5.8411    -0.5452 N.pl3   
  18 C18           -1.3128     9.0575    -1.7218 C.3     
  19 C19            1.1581    -1.8917     0.0642 C.3     
  20 C20            0.3759    -2.5291    -1.0858 C.3     
  21 C21            0.5362    -2.3106     1.3979 C.3     
  22 O22           -1.0120    -2.2180    -0.9480 O.3     
  23 C23           -1.7747    -3.0971    -0.2459 C.ar    
  24 C24           -3.1532    -2.9449    -0.2082 C.ar    
  25 C25           -3.9266    -3.8396     0.5055 C.ar    
  26 C26           -3.3273    -4.8872     1.1826 C.ar    
  27 C27           -1.9529    -5.0403     1.1466 C.ar    
  28 C28           -1.1763    -4.1507     0.4291 C.ar    
  29 C29           -3.8063    -1.8040    -0.9450 C.3     
  30 C30           -5.3087    -1.5147    -1.1535 C.3     
  31 C31           -4.6698    -0.3333    -1.9153 C.3     
  32 C32           -3.7031    -0.2820    -0.6771 C.3     
  33 C33           -3.6747    -1.4007    -2.4346 C.3     
  34 F34           -5.2949     0.7179    -2.5944 F       
  35 Cl35          -4.3015    -6.0103     2.0789 Cl      
  36 H36            2.7148     0.7992     0.5107 H       
  37 H37            3.0678    -0.3344    -0.8201 H       
  38 H38            1.5440     0.9513    -2.3131 H       
  39 H39            2.8305     2.0031    -1.6658 H       
  40 H40           -1.8072     1.9858     1.1137 H       
  41 H41           -1.8206     4.4488     0.8285 H       
  42 H42            1.7765     6.4332     0.4719 H       
  43 H43           -1.8817     6.2187    -1.6946 H       
  44 H44           -0.9608     9.2294    -2.7390 H       
  45 H45           -2.3846     8.8596    -1.7368 H       
  46 H46           -1.1148     9.9408    -1.1147 H       
  47 H47            2.1954    -2.2244     0.0266 H       
  48 H48            0.7431    -2.1392    -2.0351 H       
  49 H49            0.5100    -3.6106    -1.0610 H       
  50 H50            0.5785    -3.3955     1.4936 H       
  51 H51            1.0899    -1.8517     2.2170 H       
  52 H52           -0.5027    -1.9829     1.4332 H       
  53 H53           -4.9997    -3.7213     0.5353 H       
  54 H54           -1.4869    -5.8582     1.6760 H       
  55 H55           -0.1038    -4.2734     0.3973 H       
  56 H56           -5.8329    -2.2361    -1.7803 H       
  57 H57           -5.8531    -1.2385    -0.2504 H       
  58 H58           -4.1680     0.0549     0.2494 H       
  59 H59           -2.7202     0.1520    -0.8604 H       
  60 H60           -2.6900    -1.0365    -2.7276 H       
  61 H61           -4.1131    -2.1042    -3.1424 H       
@<TRIPOS>BOND
   1    1    2 1
   2    1    3 1
   3    1    7 2
   4    2    4 am
   5    2   11 2
   6    3    6 1
   7    3   10 am
   8    4    5 1
   9    4   19 1
  10    5    6 1
  11    5   36 1
  12    5   37 1
  13    6   38 1
  14    6   39 1
  15    7    8 1
  16    7   40 1
  17    8    9 2
  18    8   41 1
  19    9   10 1
  20    9   17 1
  21   10   12 2
  22   13   14 2
  23   13   17 1
  24   13   42 1
  25   14   15 1
  26   15   16 2
  27   15   18 1
  28   16   17 1
  29   16   43 1
  30   18   44 1
  31   18   45 1
  32   18   46 1
  33   19   20 1
  34   19   21 1
  35   19   47 1
  36   20   22 1
  37   20   48 1
  38   20   49 1
  39   21   50 1
  40   21   51 1
  41   21   52 1
  42   22   23 1
  43   23   24 ar
  44   23   28 ar
  45   24   25 ar
  46   24   29 1
  47   25   26 ar
  48   25   53 1
  49   26   27 ar
  50   26   35 1
  51   27   28 ar
  52   27   54 1
  53   28   55 1
  54   29   30 1
  55   29   32 1
  56   29   33 1
  57   30   31 1
  58   30   56 1
  59   30   57 1
  60   31   32 1
  61   31   33 1
  62   31   34 1
  63   32   58 1
  64   32   59 1
  65   33   60 1
  66   33   61 1

#	End of record

