#	Name: ASD01841007
#	Creating user name:	WinNT
#	Creation time:	15. 06. 2019 19:38

#	Modifying user name:	WinNT
#	Modification time:	15. 06. 2019 19:38

#	Program:	/corina/corina34_cracker 3.40 0067  02.08.2006

@<TRIPOS>MOLECULE
ASD01841007
  64   67    0    0    0
SMALL
NO_CHARGES


@<TRIPOS>ATOM
   1 C1            -0.0178     1.4648     0.0101 C.3     
   2 N2             0.0021    -0.0041     0.0020 N.4     
   3 C3             0.7126    -0.4907     1.1921 C.3     
   4 C4             2.1479     0.0389     1.1813 C.3     
   5 N5             2.1280     1.5077     1.1893 N.4     
   6 C6             1.4175     1.9944    -0.0008 C.3     
   7 C7            -1.3761    -0.5125     0.0124 C.3     
   8 C8            -1.3553    -2.0424     0.0040 C.3     
   9 C9            -2.7907    -2.5720     0.0149 C.3     
  10 C10           -2.7700    -4.1018     0.0065 C.3     
  11 C11           -2.0411    -4.6010     1.2274 C.ar    
  12 C12           -4.1838    -4.6234     0.0172 C.ar    
  13 O13           -2.1011    -4.5626    -1.1692 O.3     
  14 C14           -1.3537    -5.7994     1.1801 C.ar    
  15 C15           -0.6852    -6.2574     2.3001 C.ar    
  16 C16           -0.7036    -5.5167     3.4671 C.ar    
  17 C17           -1.3903    -4.3178     3.5140 C.ar    
  18 C18           -2.0552    -3.8578     2.3928 C.ar    
  19 C19           -4.4791    -5.8321    -0.5851 C.ar    
  20 C20           -5.7760    -6.3105    -0.5753 C.ar    
  21 C21           -6.7774    -5.5805     0.0371 C.ar    
  22 C22           -6.4819    -4.3723     0.6402 C.ar    
  23 C23           -5.1842    -3.8959     0.6342 C.ar    
  24 C24            3.4396     1.9916     1.1794 C.ar    
  25 C25            3.8710     2.7980     0.1428 C.ar    
  26 C26            5.1678     3.2764     0.1330 C.ar    
  27 C27            6.0332     2.9489     1.1600 C.ar    
  28 C28            5.6015     2.1432     2.1971 C.ar    
  29 C29            4.3034     1.6683     2.2091 C.ar    
  30 C30            0.6897    -0.4778    -1.2066 C.3     
  31 H31           -0.5450     1.8259    -0.8730 H       
  32 H32           -0.5280     1.8163     0.9069 H       
  33 H33            0.2024    -0.1392     2.0889 H       
  34 H34            0.7273    -1.5806     1.1861 H       
  35 H35            2.6751    -0.3222     2.0643 H       
  36 H36            2.6581    -0.3126     0.2845 H       
  37 H37            1.6558     1.8331     2.0195 H       
  38 H38            1.9277     1.6428    -0.8976 H       
  39 H39            1.4028     3.0842     0.0052 H       
  40 H40           -1.8863    -0.1610     0.9092 H       
  41 H41           -1.9033    -0.1515    -0.8706 H       
  42 H42           -0.8451    -2.3939    -0.8928 H       
  43 H43           -0.8281    -2.4035     0.8871 H       
  44 H44           -3.3009    -2.2204     0.9117 H       
  45 H45           -3.3179    -2.2109    -0.8682 H       
  46 H46           -2.5164    -4.2784    -1.9950 H       
  47 H47           -1.3393    -6.3781     0.2684 H       
  48 H48           -0.1487    -7.1940     2.2634 H       
  49 H49           -0.1819    -5.8748     4.3423 H       
  50 H50           -1.4049    -3.7393     4.4259 H       
  51 H51           -2.5916    -2.9211     2.4295 H       
  52 H52           -3.6967    -6.4024    -1.0636 H       
  53 H53           -6.0069    -7.2545    -1.0465 H       
  54 H54           -7.7908    -5.9540     0.0441 H       
  55 H55           -7.2644    -3.8018     1.1184 H       
  56 H56           -4.9534    -2.9519     1.1054 H       
  57 H57            3.1949     3.0539    -0.6596 H       
  58 H58            5.5051     3.9058    -0.6773 H       
  59 H59            7.0466     3.3221     1.1519 H       
  60 H60            6.2777     1.8870     2.9993 H       
  61 H61            3.9661     1.0389     3.0194 H       
  62 H62            1.7123    -0.1005    -1.2143 H       
  63 H63            0.7044    -1.5677    -1.2126 H       
  64 H64            0.1625    -0.1167    -2.0897 H       
@<TRIPOS>BOND
   1    1    2 1
   2    1    6 1
   3    1   31 1
   4    1   32 1
   5    2    3 1
   6    2    7 1
   7    2   30 1
   8    3    4 1
   9    3   33 1
  10    3   34 1
  11    4    5 1
  12    4   35 1
  13    4   36 1
  14    5    6 1
  15    5   24 1
  16    5   37 1
  17    6   38 1
  18    6   39 1
  19    7    8 1
  20    7   40 1
  21    7   41 1
  22    8    9 1
  23    8   42 1
  24    8   43 1
  25    9   10 1
  26    9   44 1
  27    9   45 1
  28   10   11 1
  29   10   12 1
  30   10   13 1
  31   11   14 ar
  32   11   18 ar
  33   12   19 ar
  34   12   23 ar
  35   13   46 1
  36   14   15 ar
  37   14   47 1
  38   15   16 ar
  39   15   48 1
  40   16   17 ar
  41   16   49 1
  42   17   18 ar
  43   17   50 1
  44   18   51 1
  45   19   20 ar
  46   19   52 1
  47   20   21 ar
  48   20   53 1
  49   21   22 ar
  50   21   54 1
  51   22   23 ar
  52   22   55 1
  53   23   56 1
  54   24   25 ar
  55   24   29 ar
  56   25   26 ar
  57   25   57 1
  58   26   27 ar
  59   26   58 1
  60   27   28 ar
  61   27   59 1
  62   28   29 ar
  63   28   60 1
  64   29   61 1
  65   30   62 1
  66   30   63 1
  67   30   64 1

#	End of record

