#	Name: ASD01900043
#	Creating user name:	WinNT
#	Creation time:	15. 06. 2019 19:51

#	Modifying user name:	WinNT
#	Modification time:	15. 06. 2019 19:51

#	Program:	/corina/corina34_cracker 3.40 0067  02.08.2006

@<TRIPOS>MOLECULE
ASD01900043
  32   33    0    0    0
SMALL
NO_CHARGES


@<TRIPOS>ATOM
   1 C1            -0.0280     1.5377     0.0246 C.3     
   2 C2            -0.0049    -0.0048     0.0123 C.3     
   3 C3            -1.1306    -0.5312    -0.8402 C.2     
   4 O4            -1.8864     0.2411    -1.3910 O.2     
   5 O5            -0.8321     3.3656     1.4763 O.3     
   6 C6            -0.7068     2.0451     1.2706 C.2     
   7 O7            -1.1383     1.2633     2.0846 O.2     
   8 N8            -1.2975    -1.8601    -0.9905 N.am    
   9 C9            -2.4060    -2.3514    -1.6887 C.ar    
  10 C10           -2.2882    -3.4985    -2.4622 C.ar    
  11 C11           -3.3851    -3.9822    -3.1506 C.ar    
  12 C12           -4.5996    -3.3239    -3.0697 C.ar    
  13 C13           -4.7197    -2.1805    -2.2995 C.ar    
  14 C14           -3.6273    -1.6960    -1.6046 C.ar    
  15 Cl15          -6.2451    -1.3577    -2.2007 Cl      
  16 Cl16          -3.2387    -5.4162    -4.1180 Cl      
  17 C17            1.4678     1.9400     0.0200 C.3     
  18 C18            2.1024     0.8857    -0.9206 C.3     
  19 C19            1.3497    -0.4193    -0.5886 C.3     
  20 H20           -0.5283     1.9188    -0.8657 H       
  21 H21           -0.0961    -0.3876     1.0288 H       
  22 H22           -1.2748     3.6431     2.2900 H       
  23 H23           -0.6490    -2.4759    -0.6147 H       
  24 H24           -1.3404    -4.0123    -2.5263 H       
  25 H25           -5.4552    -3.7030    -3.6089 H       
  26 H26           -3.7216    -0.8038    -1.0034 H       
  27 H27            1.5963     2.9445    -0.3832 H       
  28 H28            1.8903     1.8679     1.0221 H       
  29 H29            1.9462     1.1615    -1.9634 H       
  30 H30            3.1662     0.7768    -0.7090 H       
  31 H31            1.9167    -1.0034     0.1363 H       
  32 H32            1.1928    -1.0013    -1.4968 H       
@<TRIPOS>BOND
   1    1    2 1
   2    1   17 1
   3    1    6 1
   4    1   20 1
   5    2    3 1
   6    2   19 1
   7    2   21 1
   8    3    4 2
   9    3    8 am
  10    5    6 1
  11    5   22 1
  12    6    7 2
  13    8    9 1
  14    8   23 1
  15    9   10 ar
  16    9   14 ar
  17   10   11 ar
  18   10   24 1
  19   11   12 ar
  20   11   16 1
  21   12   13 ar
  22   12   25 1
  23   13   14 ar
  24   13   15 1
  25   14   26 1
  26   17   18 1
  27   17   27 1
  28   17   28 1
  29   18   19 1
  30   18   29 1
  31   18   30 1
  32   19   31 1
  33   19   32 1

#	End of record

