#	Name: ASD06170173
#	Creating user name:	WinNT
#	Creation time:	15. 06. 2019 21:05

#	Modifying user name:	WinNT
#	Modification time:	15. 06. 2019 21:05

#	Program:	/corina/corina34_cracker 3.40 0067  02.08.2006

@<TRIPOS>MOLECULE
ASD06170173
  65   68    0    0    0
SMALL
NO_CHARGES


@<TRIPOS>ATOM
   1 N1             0.0120     1.4294    -0.0892 N.pl3   
   2 N2            -0.0225     0.0324    -0.0500 N.am    
   3 C3             1.2427    -0.4260     0.0484 C.2     
   4 C4             2.1156     0.7583     0.0718 C.2     
   5 C5             1.2861     1.8590    -0.0165 C.2     
   6 C6             3.5804     0.7680     0.1698 C.2     
   7 O7             4.1825     1.8253     0.1792 O.2     
   8 N8             4.2581    -0.3943     0.2492 N.am    
   9 C9            -1.1633     2.2971    -0.1993 C.3     
  10 C10           -1.6346     2.6975     1.2001 C.3     
  11 C11           -2.8620     3.6036     1.0851 C.3     
  12 C12           -1.1754    -0.7578    -0.1032 C.ar    
  13 C13           -2.1222    -0.5414    -1.0960 C.ar    
  14 C14           -3.2593    -1.3236    -1.1460 C.ar    
  15 C15           -3.4557    -2.3215    -0.2090 C.ar    
  16 C16           -2.5151    -2.5392     0.7811 C.ar    
  17 C17           -1.3731    -1.7642     0.8332 C.ar    
  18 O18            1.5929    -1.5899     0.1064 O.2     
  19 C19            5.7198    -0.3847     0.3470 C.3     
  20 C20            6.2353    -1.8232     0.4236 C.3     
  21 C21            7.7619    -1.8131     0.5257 C.3     
  22 O22            8.2433    -3.1566     0.5973 O.3     
  23 N23           12.3285    -3.6456     0.8859 N.ar    
  24 C24           11.8111    -2.4416     0.8151 C.ar    
  25 C25           10.4404    -2.2381     0.7178 C.ar    
  26 C26            9.5853    -3.3254     0.6922 C.ar    
  27 C27           10.1532    -4.6172     0.7685 C.ar    
  28 C28            9.3502    -5.7671     0.7479 C.ar    
  29 C29            9.9271    -6.9974     0.8225 C.ar    
  30 C30           11.3151    -7.1317     0.9199 C.ar    
  31 C31           12.1300    -6.0225     0.9426 C.ar    
  32 C32           11.5605    -4.7415     0.8670 C.ar    
  33 O33           11.8660    -8.3711     0.9935 O.3     
  34 C34           10.9685    -9.4827     0.9658 C.3     
  35 C35            1.7318     3.2986    -0.0293 C.3     
  36 H36            3.7781    -1.2371     0.2417 H       
  37 H37           -0.9026     3.1918    -0.7647 H       
  38 H38           -1.9625     1.7628    -0.7129 H       
  39 H39           -1.8952     1.8028     1.7655 H       
  40 H40           -0.8353     3.2318     1.7137 H       
  41 H41           -3.1977     3.8889     2.0821 H       
  42 H42           -2.6013     4.4983     0.5197 H       
  43 H43           -3.6612     3.0693     0.5716 H       
  44 H44           -1.9696     0.2380    -1.8279 H       
  45 H45           -3.9961    -1.1556    -1.9175 H       
  46 H46           -4.3457    -2.9318    -0.2503 H       
  47 H47           -2.6716    -3.3191     1.5116 H       
  48 H48           -0.6368    -1.9377     1.6040 H       
  49 H49            6.1395     0.1054    -0.5316 H       
  50 H50            6.0204     0.1573     1.2436 H       
  51 H51            5.8156    -2.3132     1.3021 H       
  52 H52            5.9347    -2.3651    -0.4731 H       
  53 H53            8.1815    -1.3231    -0.3528 H       
  54 H54            8.0625    -1.2712     1.4224 H       
  55 H55           12.4691    -1.5853     0.8338 H       
  56 H56           10.0439    -1.2351     0.6617 H       
  57 H57            8.2766    -5.6763     0.6733 H       
  58 H58            9.3052    -7.8802     0.8067 H       
  59 H59           13.2012    -6.1371     1.0184 H       
  60 H60           10.2822    -9.4167     1.8101 H       
  61 H61           10.4017    -9.4690     0.0349 H       
  62 H62           11.5370   -10.4104     1.0314 H       
  63 H63            1.7706     3.6760     0.9925 H       
  64 H64            2.7218     3.3684    -0.4802 H       
  65 H65            1.0256     3.8924    -0.6095 H       
@<TRIPOS>BOND
   1    1    2 1
   2    1    5 1
   3    1    9 1
   4    2    3 am
   5    2   12 1
   6    3    4 1
   7    3   18 2
   8    4    5 2
   9    4    6 1
  10    5   35 1
  11    6    7 2
  12    6    8 am
  13    8   19 1
  14    8   36 1
  15    9   10 1
  16    9   37 1
  17    9   38 1
  18   10   11 1
  19   10   39 1
  20   10   40 1
  21   11   41 1
  22   11   42 1
  23   11   43 1
  24   12   13 ar
  25   12   17 ar
  26   13   14 ar
  27   13   44 1
  28   14   15 ar
  29   14   45 1
  30   15   16 ar
  31   15   46 1
  32   16   17 ar
  33   16   47 1
  34   17   48 1
  35   19   20 1
  36   19   49 1
  37   19   50 1
  38   20   21 1
  39   20   51 1
  40   20   52 1
  41   21   22 1
  42   21   53 1
  43   21   54 1
  44   22   26 1
  45   23   24 ar
  46   23   32 ar
  47   24   25 ar
  48   24   55 1
  49   25   26 ar
  50   25   56 1
  51   26   27 ar
  52   27   28 ar
  53   27   32 ar
  54   28   29 ar
  55   28   57 1
  56   29   30 ar
  57   29   58 1
  58   30   31 ar
  59   30   33 1
  60   31   32 ar
  61   31   59 1
  62   33   34 1
  63   34   60 1
  64   34   61 1
  65   34   62 1
  66   35   63 1
  67   35   64 1
  68   35   65 1

#	End of record

