#	Name: ASD08070131
#	Creating user name:	WinNT
#	Creation time:	15. 06. 2019 21:14

#	Modifying user name:	WinNT
#	Modification time:	15. 06. 2019 21:14

#	Program:	/corina/corina34_cracker 3.40 0067  02.08.2006

@<TRIPOS>MOLECULE
ASD08070131
  45   45    0    0    0
SMALL
NO_CHARGES


@<TRIPOS>ATOM
   1 C1            -0.0179     1.4658     0.0101 C.ar    
   2 C2             0.0021    -0.0041     0.0020 C.2     
   3 C3            -1.1575    -0.6948     0.0094 C.2     
   4 C4            -1.1377    -2.1572     0.0013 C.2     
   5 C5            -2.2757    -4.3118     0.0006 C.3     
   6 N6            -2.2956    -2.8469     0.0087 N.am    
   7 C7            -3.5702    -4.8428     0.6198 C.3     
   8 C8            -3.6290    -4.4469     2.0965 C.3     
   9 C9             1.1833     2.1844     0.0025 C.ar    
  10 C10           -1.2381     2.1515     0.0196 C.ar    
  11 C11           -1.2513     3.5280     0.0272 C.ar    
  12 C12           -0.0555     4.2371     0.0250 C.ar    
  13 C13            1.1591     3.5608     0.0102 C.ar    
  14 O14           -0.0739     5.5943     0.0316 O.3     
  15 C15            1.1904     6.2603     0.0288 C.3     
  16 O16           -0.0755    -2.7514    -0.0120 O.2     
  17 C17           -2.1568    -4.8123    -1.4403 C.3     
  18 C18           -0.8060    -4.3860    -2.0184 C.3     
  19 C19           -0.6870    -4.8865    -3.4593 C.3     
  20 C20           -4.9235    -4.9779     2.7157 C.3     
  21 H21            0.9446    -0.5313    -0.0098 H       
  22 H22           -2.1001    -0.1676     0.0212 H       
  23 H23           -1.4235    -4.6668     0.5801 H       
  24 H24           -3.1421    -2.3734     0.0193 H       
  25 H25           -4.4254    -4.4168     0.0951 H       
  26 H26           -3.5952    -5.9291     0.5336 H       
  27 H27           -2.7738    -4.8728     2.6212 H       
  28 H28           -3.6040    -3.3606     2.1827 H       
  29 H29            2.1273     1.6600    -0.0090 H       
  30 H30           -2.1676     1.6016     0.0206 H       
  31 H31           -2.1922     4.0581     0.0345 H       
  32 H32            2.0853     4.1162     0.0085 H       
  33 H33            1.7472     5.9793    -0.8651 H       
  34 H34            1.0330     7.3388     0.0348 H       
  35 H35            1.7555     5.9707     0.9148 H       
  36 H36           -2.2313    -5.8996    -1.4545 H       
  37 H37           -2.9601    -4.3852    -2.0407 H       
  38 H38           -0.7315    -3.2986    -2.0042 H       
  39 H39           -0.0027    -4.8130    -1.4180 H       
  40 H40           -0.7615    -5.9738    -3.4736 H       
  41 H41           -1.4903    -4.4594    -4.0598 H       
  42 H42            0.2754    -4.5828    -3.8712 H       
  43 H43           -5.7786    -4.5519     2.1910 H       
  44 H44           -4.9485    -6.0642     2.6295 H       
  45 H45           -4.9654    -4.6959     3.7677 H       
@<TRIPOS>BOND
   1    1    2 1
   2    1    9 ar
   3    1   10 ar
   4    2    3 2
   5    2   21 1
   6    3    4 1
   7    3   22 1
   8    4   16 2
   9    4    6 am
  10    5    7 1
  11    5    6 1
  12    5   17 1
  13    5   23 1
  14    6   24 1
  15    7    8 1
  16    7   25 1
  17    7   26 1
  18    8   20 1
  19    8   27 1
  20    8   28 1
  21    9   13 ar
  22    9   29 1
  23   10   11 ar
  24   10   30 1
  25   11   12 ar
  26   11   31 1
  27   12   13 ar
  28   12   14 1
  29   13   32 1
  30   14   15 1
  31   15   33 1
  32   15   34 1
  33   15   35 1
  34   17   18 1
  35   17   36 1
  36   17   37 1
  37   18   19 1
  38   18   38 1
  39   18   39 1
  40   19   40 1
  41   19   41 1
  42   19   42 1
  43   20   43 1
  44   20   44 1
  45   20   45 1

#	End of record

