#	Name: ASD09080152
#	Creating user name:	WinNT
#	Creation time:	15. 06. 2019 21:20

#	Modifying user name:	WinNT
#	Modification time:	15. 06. 2019 21:20

#	Program:	/corina/corina34_cracker 3.40 0067  02.08.2006

@<TRIPOS>MOLECULE
ASD09080152
  66   68    0    0    0
SMALL
NO_CHARGES


@<TRIPOS>ATOM
   1 C1            -0.5226     3.3028     2.8414 C.ar    
   2 C2            -0.4000     1.9850     3.2467 C.ar    
   3 C3            -1.4897     1.1336     3.1873 C.ar    
   4 C4            -2.7059     1.5961     2.7232 C.ar    
   5 C5            -2.8346     2.9218     2.3146 C.ar    
   6 C6            -1.7361     3.7762     2.3812 C.ar    
   7 Cl7            0.8489     4.3644     2.9183 Cl      
   8 Cl8           -1.3276    -0.5181     3.6963 Cl      
   9 C9            -4.1386     3.4235     1.8148 C.ar    
  10 C10           -4.2676     4.7493     1.4061 C.ar    
  11 C11           -5.4827     5.2104     0.9416 C.ar    
  12 C12           -6.5713     4.3591     0.8815 C.ar    
  13 C13           -6.4490     3.0422     1.2864 C.ar    
  14 C14           -5.2371     2.5689     1.7471 C.ar    
  15 C15           -7.8955     4.8685     0.3734 C.3     
  16 C16           -7.9740     4.6630    -1.1407 C.3     
  17 N17           -6.9614     5.4921    -1.7992 N.am    
  18 C18           -9.3640     5.0643    -1.6384 C.3     
  19 C19           -9.4037     4.9772    -3.1654 C.3     
  20 O20           -9.1074     3.6403    -3.5741 O.3     
  21 C21           -6.9835     6.8310    -1.6467 C.2     
  22 C22           -5.8817     7.6746    -2.2343 C.3     
  23 O23           -7.8902     7.3569    -1.0366 O.2     
  24 O24           -6.0630     9.0363    -1.8409 O.3     
  25 C25           -5.0657     9.9255    -2.3478 C.3     
  26 O26          -10.3414     4.1806    -1.0853 O.3     
  27 C27          -12.5368     3.7958    -0.2016 C.ar    
  28 C28          -12.5621     3.4523     1.1372 C.ar    
  29 C29          -13.4663     2.5109     1.5922 C.ar    
  30 C30          -14.3454     1.9132     0.7086 C.ar    
  31 C31          -14.3207     2.2573    -0.6300 C.ar    
  32 C32          -13.4156     3.1978    -1.0853 C.ar    
  33 C33          -11.5553     4.8267    -0.6966 C.3     
  34 C34          -10.7769     5.3593    -3.6548 C.2     
  35 O35          -11.4786     4.5344    -4.1904 O.2     
  36 O36          -11.2204     6.6162    -3.4956 O.3     
  37 C37          -12.5907     6.8869    -3.8922 C.3     
  38 H38            0.5492     1.6198     3.6101 H       
  39 H39           -3.5555     0.9309     2.6770 H       
  40 H40           -1.8310     4.8048     2.0659 H       
  41 H41           -3.4184     5.4149     1.4529 H       
  42 H42           -5.5839     6.2380     0.6249 H       
  43 H43           -7.3023     2.3820     1.2380 H       
  44 H44           -5.1427     1.5405     2.0630 H       
  45 H45           -8.7049     4.3214     0.8568 H       
  46 H46           -7.9879     5.9304     0.6013 H       
  47 H47           -7.7930     3.6140    -1.3748 H       
  48 H48           -6.2750     5.0773    -2.3449 H       
  49 H49           -9.5805     6.0862    -1.3270 H       
  50 H50           -8.6650     5.6584    -3.5875 H       
  51 H51           -8.2062     3.3566    -3.3679 H       
  52 H52           -4.9178     7.3170    -1.8721 H       
  53 H53           -5.9102     7.6036    -3.3216 H       
  54 H54           -5.2742    10.9389    -2.0047 H       
  55 H55           -4.0849     9.6146    -1.9880 H       
  56 H56           -5.0774     9.9012    -3.4375 H       
  57 H57          -11.8753     3.9193     1.8275 H       
  58 H58          -13.4856     2.2420     2.6380 H       
  59 H59          -15.0513     1.1772     1.0640 H       
  60 H60          -15.0071     1.7899    -1.3205 H       
  61 H61          -13.3958     3.4661    -2.1313 H       
  62 H62          -11.3475     5.5420     0.0991 H       
  63 H63          -11.9792     5.3497    -1.5538 H       
  64 H64          -12.8484     7.9134    -3.6315 H       
  65 H65          -12.6913     6.7493    -4.9688 H       
  66 H66          -13.2611     6.2012    -3.3741 H       
@<TRIPOS>BOND
   1    1    2 ar
   2    1    7 1
   3    1    6 ar
   4    2    3 ar
   5    2   38 1
   6    3    4 ar
   7    3    8 1
   8    4    5 ar
   9    4   39 1
  10    5    6 ar
  11    5    9 1
  12    6   40 1
  13    9   10 ar
  14    9   14 ar
  15   10   11 ar
  16   10   41 1
  17   11   12 ar
  18   11   42 1
  19   12   13 ar
  20   12   15 1
  21   13   14 ar
  22   13   43 1
  23   14   44 1
  24   15   16 1
  25   15   45 1
  26   15   46 1
  27   16   17 1
  28   16   18 1
  29   16   47 1
  30   17   21 am
  31   17   48 1
  32   18   19 1
  33   18   26 1
  34   18   49 1
  35   19   20 1
  36   19   34 1
  37   19   50 1
  38   20   51 1
  39   21   22 1
  40   21   23 2
  41   22   24 1
  42   22   52 1
  43   22   53 1
  44   24   25 1
  45   25   54 1
  46   25   55 1
  47   25   56 1
  48   26   33 1
  49   27   28 ar
  50   27   32 ar
  51   27   33 1
  52   28   29 ar
  53   28   57 1
  54   29   30 ar
  55   29   58 1
  56   30   31 ar
  57   30   59 1
  58   31   32 ar
  59   31   60 1
  60   32   61 1
  61   33   62 1
  62   33   63 1
  63   34   35 2
  64   34   36 1
  65   36   37 1
  66   37   64 1
  67   37   65 1
  68   37   66 1

#	End of record

