#	Name: ASD07300773
#	Creating user name:	WinNT
#	Creation time:	15. 06. 2019 21:10

#	Modifying user name:	WinNT
#	Modification time:	15. 06. 2019 21:10

#	Program:	/corina/corina34_cracker 3.40 0067  02.08.2006

@<TRIPOS>MOLECULE
ASD07300773
  45   48    0    0    0
SMALL
NO_CHARGES


@<TRIPOS>ATOM
   1 C1             0.5983     0.7578    -0.0137 C.3     
   2 C2             0.8197    -0.7253     0.1366 C.2     
   3 C3            -0.3561    -1.6679     0.1230 C.3     
   4 O4             1.9392    -1.1584     0.2681 O.2     
   5 N5             1.8880     1.4511     0.0316 N.pl3   
   6 N6             2.8381     1.3510     1.0551 N.2     
   7 C7             3.8587     2.1083     0.7512 C.2     
   8 C8             3.5936     2.7243    -0.4888 C.2     
   9 C9             2.3678     2.2921    -0.9089 C.2     
  10 C10            5.8626     5.3157    -1.6851 C.2     
  11 C11            6.6612     6.4484    -1.3898 C.2     
  12 N12            5.1637     4.7184    -0.6646 N.pl3   
  13 N13            6.7160     6.9011    -0.1532 N.2     
  14 C14            6.0316     6.3122     0.8336 C.2     
  15 C15            5.2589     5.2327     0.6032 C.2     
  16 N16            5.6200     4.6469    -2.7997 N.2     
  17 C17            4.7855     3.6430    -2.5407 C.2     
  18 C18            4.4838     3.6643    -1.2073 C.2     
  19 N19            7.3802     7.0759    -2.3948 N.pl3   
  20 C20            7.2323     6.6670    -3.8006 C.3     
  21 C21            6.9679     7.9200    -4.6434 C.3     
  22 O22            7.9777     8.8939    -4.3683 O.3     
  23 C23            7.9967     9.3508    -3.0138 C.3     
  24 C24            8.3096     8.1749    -2.0883 C.3     
  25 C25            4.2655     2.6479    -3.5459 C.3     
  26 H26            0.1117     0.9576    -0.9684 H       
  27 H27           -0.0349     1.1148     0.7985 H       
  28 H28           -0.5549    -1.9859    -0.9005 H       
  29 H29           -0.1300    -2.5397     0.7369 H       
  30 H30           -1.2338    -1.1598     0.5225 H       
  31 H31            4.7503     2.2394     1.3465 H       
  32 H32            1.8716     2.5738    -1.8259 H       
  33 H33            6.1001     6.7097     1.8354 H       
  34 H34            4.7147     4.7738     1.4154 H       
  35 H35            8.1477     6.1826    -4.1403 H       
  36 H36            6.3940     5.9769    -3.8960 H       
  37 H37            6.9923     7.6590    -5.7014 H       
  38 H38            5.9895     8.3287    -4.3909 H       
  39 H39            8.7613    10.1192    -2.8995 H       
  40 H40            7.0220     9.7647    -2.7555 H       
  41 H41            8.1844     8.4828    -1.0503 H       
  42 H42            9.3353     7.8449    -2.2527 H       
  43 H43            4.9400     1.7930    -3.5932 H       
  44 H44            3.2734     2.3118    -3.2446 H       
  45 H45            4.2070     3.1193    -4.5270 H       
@<TRIPOS>BOND
   1    1    2 1
   2    1    5 1
   3    1   26 1
   4    1   27 1
   5    2    3 1
   6    2    4 2
   7    3   28 1
   8    3   29 1
   9    3   30 1
  10    5    6 1
  11    5    9 1
  12    6    7 2
  13    7    8 1
  14    7   31 1
  15    8    9 2
  16    8   18 1
  17    9   32 1
  18   10   11 1
  19   10   12 1
  20   10   16 2
  21   11   13 2
  22   11   19 1
  23   12   15 1
  24   12   18 1
  25   13   14 1
  26   14   15 2
  27   14   33 1
  28   15   34 1
  29   16   17 1
  30   17   18 2
  31   17   25 1
  32   19   20 1
  33   19   24 1
  34   20   21 1
  35   20   35 1
  36   20   36 1
  37   21   22 1
  38   21   37 1
  39   21   38 1
  40   22   23 1
  41   23   24 1
  42   23   39 1
  43   23   40 1
  44   24   41 1
  45   24   42 1
  46   25   43 1
  47   25   44 1
  48   25   45 1

#	End of record

