#	Name: ASD05720300
#	Creating user name:	WinNT
#	Creation time:	15. 06. 2019 21:02

#	Modifying user name:	WinNT
#	Modification time:	15. 06. 2019 21:02

#	Program:	/corina/corina34_cracker 3.40 0067  02.08.2006

@<TRIPOS>MOLECULE
ASD05720300
  59   63    0    0    0
SMALL
NO_CHARGES


@<TRIPOS>ATOM
   1 N1            -0.1614     1.3388     0.5833 N.am    
   2 C2            -0.1466    -0.0089     0.5828 C.2     
   3 O3             0.7773    -0.6069     1.0997 O.2     
   4 N4            -1.1558    -0.6938     0.0094 N.am    
   5 C5            -1.0871    -2.0850    -0.0912 C.ar    
   6 C6            -2.2443    -2.8471     0.0254 C.ar    
   7 C7            -2.1797    -4.2197    -0.0734 C.ar    
   8 C8            -0.9509    -4.8453    -0.2912 C.ar    
   9 C9             0.2091    -4.0775    -0.4083 C.ar    
  10 C10            0.1376    -2.7050    -0.3134 C.ar    
  11 C11           -1.6170    -8.4166     0.2404 C.ar    
  12 N12           -0.7725    -9.0364    -0.5670 N.ar    
  13 C13            0.0653    -8.3441    -1.3339 C.ar    
  14 C14            0.0396    -6.9353    -1.2730 C.ar    
  15 C15           -0.8780    -6.3192    -0.3973 C.ar    
  16 N16           -1.6765    -7.0942     0.3307 N.ar    
  17 N17            1.5881    -7.4918    -2.7384 N.2     
  18 N18            1.0265    -8.6754    -2.2432 N.pl3   
  19 C19            1.0167    -6.4651    -2.1762 C.2     
  20 C20            1.6502   -11.6158    -4.5501 C.3     
  21 C21            1.1771   -10.2196    -4.1370 C.3     
  22 C22            1.4066   -10.0353    -2.6338 C.3     
  23 C23            2.8893   -10.2621    -2.3232 C.3     
  24 C24            3.2963   -11.6566    -2.8064 C.3     
  25 O25            3.0283   -11.7716    -4.2053 O.3     
  26 O26           -3.5623   -10.1334     3.4228 O.3     
  27 C27           -4.3059    -9.1947     2.6409 C.3     
  28 C28           -3.3346    -8.3185     1.8455 C.3     
  29 N29           -2.4753    -9.1762     1.0166 N.3     
  30 C30           -1.7277   -10.1273     1.8520 C.3     
  31 C31           -2.7151   -10.9854     2.6473 C.3     
  32 C32            0.9356     2.0832     1.2067 C.3     
  33 H33           -0.8965     1.8158     0.1674 H       
  34 H34           -1.9299    -0.2204    -0.3335 H       
  35 H35           -3.1947    -2.3626     0.1938 H       
  36 H36           -3.0787    -4.8112     0.0179 H       
  37 H37            1.1612    -4.5588    -0.5768 H       
  38 H38            1.0341    -2.1102    -0.4077 H       
  39 H39            1.2512    -5.4286    -2.3689 H       
  40 H40            1.0581   -12.3689    -4.0303 H       
  41 H41            1.5289   -11.7370    -5.6265 H       
  42 H42            1.7413    -9.4663    -4.6867 H       
  43 H43            0.1151   -10.1145    -4.3589 H       
  44 H44            0.8027   -10.7555    -2.0817 H       
  45 H45            3.4882    -9.5096    -2.8363 H       
  46 H46            3.0518   -10.1873    -1.2480 H       
  47 H47            4.3608   -11.8072    -2.6266 H       
  48 H48            2.7257   -12.4102    -2.2637 H       
  49 H49           -4.9593    -9.7311     1.9527 H       
  50 H50           -4.9064    -8.5672     3.2995 H       
  51 H51           -3.8978    -7.6398     1.2049 H       
  52 H52           -2.7173    -7.7417     2.5342 H       
  53 H53           -1.1178   -10.7691     1.2161 H       
  54 H54           -1.0846    -9.5795     2.5408 H       
  55 H55           -2.1650   -11.6530     3.3105 H       
  56 H56           -3.3222   -11.5738     1.9593 H       
  57 H57            0.9993     1.8202     2.2625 H       
  58 H58            1.8734     1.8304     0.7120 H       
  59 H59            0.7503     3.1529     1.1092 H       
@<TRIPOS>BOND
   1    1    2 am
   2    1   32 1
   3    1   33 1
   4    2    3 2
   5    2    4 am
   6    4    5 1
   7    4   34 1
   8    5    6 ar
   9    5   10 ar
  10    6    7 ar
  11    6   35 1
  12    7    8 ar
  13    7   36 1
  14    8    9 ar
  15    8   15 1
  16    9   10 ar
  17    9   37 1
  18   10   38 1
  19   11   12 ar
  20   11   16 ar
  21   11   29 1
  22   12   13 ar
  23   13   14 ar
  24   13   18 1
  25   14   15 ar
  26   14   19 1
  27   15   16 ar
  28   17   18 1
  29   17   19 2
  30   18   22 1
  31   19   39 1
  32   20   21 1
  33   20   25 1
  34   20   40 1
  35   20   41 1
  36   21   22 1
  37   21   42 1
  38   21   43 1
  39   22   23 1
  40   22   44 1
  41   23   24 1
  42   23   45 1
  43   23   46 1
  44   24   25 1
  45   24   47 1
  46   24   48 1
  47   26   27 1
  48   26   31 1
  49   27   28 1
  50   27   49 1
  51   27   50 1
  52   28   29 1
  53   28   51 1
  54   28   52 1
  55   29   30 1
  56   30   31 1
  57   30   53 1
  58   30   54 1
  59   31   55 1
  60   31   56 1
  61   32   57 1
  62   32   58 1
  63   32   59 1

#	End of record

