#	Name: ASD01410544
#	Creating user name:	WinNT
#	Creation time:	15. 06. 2019 19:18

#	Modifying user name:	WinNT
#	Modification time:	15. 06. 2019 19:18

#	Program:	/corina/corina34_cracker 3.40 0067  02.08.2006

@<TRIPOS>MOLECULE
ASD01410544
  80   84    0    0    0
SMALL
NO_CHARGES


@<TRIPOS>ATOM
   1 C1             1.3818     2.5117    -3.7202 C.ar    
   2 C2             1.8900     1.5999    -4.6349 C.ar    
   3 C3             2.9778     0.8251    -4.2834 C.ar    
   4 N4             3.5355     0.9426    -3.0936 N.ar    
   5 C5             3.0799     1.8000    -2.1950 C.ar    
   6 C6             1.9890     2.6112    -2.4803 C.ar    
   7 C7             5.8677     1.0522    -1.4260 C.ar    
   8 C8             4.6820     1.0084    -0.7024 C.ar    
   9 O9             3.6839     1.8879    -0.9834 O.3     
  10 C10            6.8871     0.1637    -1.1492 C.ar    
  11 C11            6.7340    -0.7816    -0.1446 C.ar    
  12 C12            5.5394    -0.8308     0.5899 C.ar    
  13 C13            4.5136     0.0729     0.3021 C.ar    
  14 C14            1.2611     1.4565    -5.9969 C.3     
  15 N15            7.7636    -1.6793     0.1337 N.am    
  16 C16            8.1903    -2.6430    -0.8838 C.3     
  17 C17            8.3665    -1.6605     1.3390 C.2     
  18 C18            9.4719    -2.6384     1.6439 C.3     
  19 O19            8.0194    -0.8567     2.1782 O.2     
  20 C20            9.7353    -2.6567     3.1509 C.3     
  21 C21           10.7450    -2.2144     0.9087 C.3     
  22 C22           11.1592    -0.8160     1.3711 C.3     
  23 C23           11.4226    -0.8344     2.8782 C.3     
  24 C24           10.1495    -1.2583     3.6133 C.3     
  25 C25           11.8368     0.5640     3.3406 C.3     
  26 C26            7.7459    -4.0483    -0.4734 C.3     
  27 N27            1.9073     2.3799    -6.9328 N.pl3   
  28 N28            2.9372     2.0937    -7.6477 N.2     
  29 C29            3.2539     3.1441    -8.3705 C.2     
  30 C30            2.3199     4.1297    -8.0430 C.2     
  31 N31            1.5185     3.5854    -7.1555 N.2     
  32 C32            6.2218    -4.0840    -0.3445 C.3     
  33 C33            5.5876    -3.7208    -1.6887 C.3     
  34 C34            6.0320    -2.3154    -2.0991 C.3     
  35 C35            7.5561    -2.2798    -2.2280 C.3     
  36 O36            4.1641    -3.7540    -1.5683 O.3     
  37 C37            3.4866    -4.1037    -2.7769 C.3     
  38 C38            5.3672    -1.8314     1.6583 C.2     
  39 O39            6.2990    -2.5407     1.9823 O.2     
  40 O40            4.1763    -1.9595     2.2759 O.3     
  41 C41            1.4735     3.5865    -1.4536 C.3     
  42 F42            0.3776     4.2800    -1.9783 F       
  43 F43            1.0789     2.8904    -0.3060 F       
  44 F44            2.4854     4.4944    -1.1235 F       
  45 H45            0.5347     3.1326    -3.9717 H       
  46 H46            3.3769     0.1139    -4.9915 H       
  47 H47            5.9905     1.7825    -2.2120 H       
  48 H48            7.8056     0.2040    -1.7159 H       
  49 H49            3.5913     0.0412     0.8631 H       
  50 H50            1.3884     0.4332    -6.3499 H       
  51 H51            0.1982     1.6891    -5.9326 H       
  52 H52            9.2761    -2.6176    -0.9757 H       
  53 H53            9.1768    -3.6346     1.3144 H       
  54 H54            8.8283    -2.9588     3.6746 H       
  55 H55           10.5348    -3.3640     3.3714 H       
  56 H56           11.5445    -2.9217     1.1292 H       
  57 H57           10.5573    -2.2013    -0.1649 H       
  58 H58           12.0661    -0.5139     0.8474 H       
  59 H59           10.3596    -0.1087     1.1506 H       
  60 H60           12.2221    -1.5416     3.0987 H       
  61 H61            9.3500    -0.5511     3.3928 H       
  62 H62           10.3372    -1.2714     4.6869 H       
  63 H63           11.0373     1.2713     3.1201 H       
  64 H64           12.0245     0.5510     4.4142 H       
  65 H65           12.7438     0.8661     2.8169 H       
  66 H66            8.0634    -4.7654    -1.2305 H       
  67 H67            8.1977    -4.3071     0.4842 H       
  68 H68            4.0694     3.2284    -9.0735 H       
  69 H69            2.2649     5.1321    -8.4411 H       
  70 H70            5.9052    -5.0852    -0.0521 H       
  71 H71            5.9043    -3.3669     0.4126 H       
  72 H72            5.9051    -4.4378    -2.4458 H       
  73 H73            5.5802    -2.0566    -3.0567 H       
  74 H74            5.7145    -1.5984    -1.3420 H       
  75 H75            7.8727    -1.2786    -2.5204 H       
  76 H76            7.8736    -2.9968    -2.9851 H       
  77 H77            2.4106    -4.1068    -2.6024 H       
  78 H78            3.7269    -3.3757    -3.5518 H       
  79 H79            3.8054    -5.0952    -3.0984 H       
  80 H80            4.1118    -2.6294     2.9703 H       
@<TRIPOS>BOND
   1    1    2 ar
   2    1    6 ar
   3    1   45 1
   4    2    3 ar
   5    2   14 1
   6    3    4 ar
   7    3   46 1
   8    4    5 ar
   9    5    6 ar
  10    5    9 1
  11    6   41 1
  12    7    8 ar
  13    7   10 ar
  14    7   47 1
  15    8    9 1
  16    8   13 ar
  17   10   11 ar
  18   10   48 1
  19   11   12 ar
  20   11   15 1
  21   12   13 ar
  22   12   38 1
  23   13   49 1
  24   14   27 1
  25   14   50 1
  26   14   51 1
  27   15   16 1
  28   15   17 am
  29   16   26 1
  30   16   35 1
  31   16   52 1
  32   17   19 2
  33   17   18 1
  34   18   20 1
  35   18   21 1
  36   18   53 1
  37   20   24 1
  38   20   54 1
  39   20   55 1
  40   21   22 1
  41   21   56 1
  42   21   57 1
  43   22   23 1
  44   22   58 1
  45   22   59 1
  46   23   24 1
  47   23   25 1
  48   23   60 1
  49   24   61 1
  50   24   62 1
  51   25   63 1
  52   25   64 1
  53   25   65 1
  54   26   32 1
  55   26   66 1
  56   26   67 1
  57   27   28 1
  58   27   31 1
  59   28   29 2
  60   29   30 1
  61   29   68 1
  62   30   31 2
  63   30   69 1
  64   32   33 1
  65   32   70 1
  66   32   71 1
  67   33   34 1
  68   33   36 1
  69   33   72 1
  70   34   35 1
  71   34   73 1
  72   34   74 1
  73   35   75 1
  74   35   76 1
  75   36   37 1
  76   37   77 1
  77   37   78 1
  78   37   79 1
  79   38   39 2
  80   38   40 1
  81   40   80 1
  82   41   42 1
  83   41   43 1
  84   41   44 1

#	End of record

