#	Name: ASD00310025
#	Creating user name:	WinNT
#	Creation time:	15. 06. 2019 18:33

#	Modifying user name:	WinNT
#	Modification time:	15. 06. 2019 18:33

#	Program:	/corina/corina34_cracker 3.40 0067  02.08.2006

@<TRIPOS>MOLECULE
ASD00310025
  26   26    0    0    0
SMALL
NO_CHARGES


@<TRIPOS>ATOM
   1 C1            -0.0167     1.3834     0.0096 C.ar    
   2 C2             0.0021    -0.0041     0.0020 C.ar    
   3 C3             1.2079    -0.6776    -0.0131 C.ar    
   4 C4             2.3962     0.0294    -0.0207 C.ar    
   5 C5             2.3806     1.4126    -0.0126 C.ar    
   6 C6             1.1761     2.0910     0.0021 C.ar    
   7 O7            -1.2022     2.0479     0.0189 O.3     
   8 C8            -0.9920    -2.2758    -0.0003 C.3     
   9 C9            -1.2924    -0.7757     0.0107 C.3     
  10 C10           -2.0873    -0.4240     1.2698 C.3     
  11 C11           -2.1121    -0.4106    -1.2285 C.3     
  12 O12           -2.2194    -3.0075     0.0080 O.3     
  13 Br13           4.0077     2.3761    -0.0217 Br      
  14 H14            1.2226    -1.7575    -0.0187 H       
  15 H15            3.3380    -0.4992    -0.0325 H       
  16 H16            1.1639     3.1709     0.0076 H       
  17 H17           -1.5411     2.2354     0.9049 H       
  18 H18           -0.4257    -2.5264    -0.8973 H       
  19 H19           -0.4080    -2.5359     0.8825 H       
  20 H20           -2.3013     0.6448     1.2777 H       
  21 H21           -3.0236    -0.9820     1.2761 H       
  22 H22           -1.5033    -0.6841     2.1527 H       
  23 H23           -1.5458    -0.6611    -2.1255 H       
  24 H24           -3.0484    -0.9686    -1.2222 H       
  25 H25           -2.3261     0.6582    -1.2206 H       
  26 H26           -2.1050    -3.9677     0.0017 H       
@<TRIPOS>BOND
   1    1    2 ar
   2    1    6 ar
   3    1    7 1
   4    2    3 ar
   5    2    9 1
   6    3    4 ar
   7    3   14 1
   8    4    5 ar
   9    4   15 1
  10    5    6 ar
  11    5   13 1
  12    6   16 1
  13    7   17 1
  14    8    9 1
  15    8   12 1
  16    8   18 1
  17    8   19 1
  18    9   10 1
  19    9   11 1
  20   10   20 1
  21   10   21 1
  22   10   22 1
  23   11   23 1
  24   11   24 1
  25   11   25 1
  26   12   26 1

#	End of record

