#	Name: ASD06660124
#	Creating user name:	WinNT
#	Creation time:	15. 06. 2019 21:08

#	Modifying user name:	WinNT
#	Modification time:	15. 06. 2019 21:08

#	Program:	/corina/corina34_cracker 3.40 0067  02.08.2006

@<TRIPOS>MOLECULE
ASD06660124
  82   86    0    0    0
SMALL
NO_CHARGES


@<TRIPOS>ATOM
   1 C1             0.2330     1.9369     1.0704 C.2     
   2 C2             0.0156     0.5409     0.5462 C.3     
   3 C3            -1.1177     0.5528    -0.4816 C.3     
   4 O4             1.3052     2.4754     0.9284 O.2     
   5 O5            -0.7663     2.5843     1.6902 O.3     
   6 C6             2.2713    -0.3719     0.6711 C.2     
   7 C7             3.5470    -0.7716     0.0345 C.ar    
   8 C8             3.8016    -2.1180    -0.2320 C.ar    
   9 C9             4.9882    -2.4911    -0.8239 C.ar    
  10 C10            5.9376    -1.5205    -1.1581 C.ar    
  11 C11            5.6812    -0.1726    -0.8912 C.ar    
  12 C12            4.4912     0.1986    -0.3038 C.ar    
  13 O13            2.1493    -0.4339     1.8786 O.2     
  14 N14            1.2455     0.0605    -0.0885 N.am    
  15 C15            4.2119     1.6523    -0.0214 C.3     
  16 C16            2.7781    -3.1637     0.1284 C.3     
  17 C17            1.7722    -3.3083    -1.0153 C.3     
  18 C18            7.2078    -1.9185    -1.7910 C.2     
  19 O19            7.4298    -3.0876    -2.0220 O.2     
  20 C20            8.2307    -0.8719    -2.1510 C.3     
  21 C21           -1.4241    -0.8598    -0.9079 C.ar    
  22 C22           -2.3409    -1.6117    -0.1962 C.ar    
  23 C23           -2.6241    -2.9065    -0.5841 C.ar    
  24 C24           -1.9868    -3.4535    -1.6905 C.ar    
  25 C25           -1.0664    -2.6955    -2.4032 C.ar    
  26 C26           -0.7921    -1.3994    -2.0132 C.ar    
  27 N27           -2.2704    -4.7630    -2.0853 N.3     
  28 C28           -1.4893    -5.1359    -3.2715 C.3     
  29 C29           -1.9301    -6.5174    -3.7606 C.3     
  30 C30           -1.7160    -7.5416    -2.6426 C.3     
  31 C31           -2.5016    -7.1043    -1.4032 C.3     
  32 C32           -2.0442    -5.7058    -0.9825 C.3     
  33 C33           -2.2114    -8.9135    -3.1043 C.3     
  34 N34           -1.8980    -9.9152    -2.0823 N.pl3   
  35 C35           -2.2509   -11.2338    -2.2781 C.2     
  36 N36           -2.8930   -11.7184    -3.3814 N.pl3   
  37 C37           -3.0629   -13.0803    -3.1928 C.ar    
  38 C38           -2.4977   -13.3747    -1.9408 C.ar    
  39 N39           -2.0152   -12.2087    -1.4359 N.2     
  40 C40           -2.5179   -14.6892    -1.4693 C.ar    
  41 C41           -3.0900   -15.6815    -2.2341 C.ar    
  42 C42           -3.6460   -15.3855    -3.4693 C.ar    
  43 C43           -3.6348   -14.0915    -3.9490 C.ar    
  44 H44           -0.2494    -0.1200     1.3715 H       
  45 H45           -2.0071     0.9991    -0.0367 H       
  46 H46           -0.8141     1.1367    -1.3505 H       
  47 H47           -0.5793     3.4778     2.0093 H       
  48 H48            5.1852    -3.5329    -1.0293 H       
  49 H49            6.4139     0.5780    -1.1486 H       
  50 H50            1.3215     0.0538    -1.0555 H       
  51 H51            4.5765     1.9057     0.9740 H       
  52 H52            4.7190     2.2703    -0.7624 H       
  53 H53            3.1380     1.8324    -0.0717 H       
  54 H54            3.2773    -4.1181     0.2960 H       
  55 H55            2.2553    -2.8628     1.0362 H       
  56 H56            1.3452    -2.3330    -1.2492 H       
  57 H57            2.2778    -3.7042    -1.8961 H       
  58 H58            0.9768    -3.9907    -0.7156 H       
  59 H59            8.5400    -0.3413    -1.2506 H       
  60 H60            9.0972    -1.3520    -2.6056 H       
  61 H61            7.7945    -0.1655    -2.8573 H       
  62 H62           -2.8358    -1.1859     0.6642 H       
  63 H63           -3.3400    -3.4933    -0.0276 H       
  64 H64           -0.5691    -3.1178    -3.2639 H       
  65 H65           -0.0801    -0.8079    -2.5696 H       
  66 H66           -1.6538    -4.4018    -4.0602 H       
  67 H67           -0.4301    -5.1623    -3.0153 H       
  68 H68           -2.9859    -6.4882    -4.0300 H       
  69 H69           -1.3393    -6.8006    -4.6317 H       
  70 H70           -0.6549    -7.5992    -2.3998 H       
  71 H71           -3.5663    -7.0844    -1.6356 H       
  72 H72           -2.3191    -7.8069    -0.5901 H       
  73 H73           -0.9824    -5.7295    -0.7370 H       
  74 H74           -2.6117    -5.3857    -0.1087 H       
  75 H75           -3.2898    -8.8773    -3.2589 H       
  76 H76           -1.7192    -9.1819    -4.0391 H       
  77 H77           -1.4421    -9.6509    -1.2679 H       
  78 H78           -3.1777   -11.2046    -4.1533 H       
  79 H79           -2.0859   -14.9268    -0.5084 H       
  80 H80           -3.1054   -16.6978    -1.8691 H       
  81 H81           -4.0914   -16.1726    -4.0597 H       
  82 H82           -4.0697   -13.8674    -4.9118 H       
@<TRIPOS>BOND
   1    1    2 1
   2    1    4 2
   3    1    5 1
   4    2    3 1
   5    2   14 1
   6    2   44 1
   7    3   21 1
   8    3   45 1
   9    3   46 1
  10    5   47 1
  11    6    7 1
  12    6   13 2
  13    6   14 am
  14    7    8 ar
  15    7   12 ar
  16    8    9 ar
  17    8   16 1
  18    9   10 ar
  19    9   48 1
  20   10   11 ar
  21   10   18 1
  22   11   12 ar
  23   11   49 1
  24   12   15 1
  25   14   50 1
  26   15   51 1
  27   15   52 1
  28   15   53 1
  29   16   17 1
  30   16   54 1
  31   16   55 1
  32   17   56 1
  33   17   57 1
  34   17   58 1
  35   18   19 2
  36   18   20 1
  37   20   59 1
  38   20   60 1
  39   20   61 1
  40   21   22 ar
  41   21   26 ar
  42   22   23 ar
  43   22   62 1
  44   23   24 ar
  45   23   63 1
  46   24   25 ar
  47   24   27 1
  48   25   26 ar
  49   25   64 1
  50   26   65 1
  51   27   28 1
  52   27   32 1
  53   28   29 1
  54   28   66 1
  55   28   67 1
  56   29   30 1
  57   29   68 1
  58   29   69 1
  59   30   31 1
  60   30   33 1
  61   30   70 1
  62   31   32 1
  63   31   71 1
  64   31   72 1
  65   32   73 1
  66   32   74 1
  67   33   34 1
  68   33   75 1
  69   33   76 1
  70   34   35 1
  71   34   77 1
  72   35   36 1
  73   35   39 2
  74   36   37 1
  75   36   78 1
  76   37   38 ar
  77   37   43 ar
  78   38   39 1
  79   38   40 ar
  80   40   41 ar
  81   40   79 1
  82   41   42 ar
  83   41   80 1
  84   42   43 ar
  85   42   81 1
  86   43   82 1

#	End of record

