#	Name: ASD07330012
#	Creating user name:	WinNT
#	Creation time:	15. 06. 2019 21:11

#	Modifying user name:	WinNT
#	Modification time:	15. 06. 2019 21:11

#	Program:	/corina/corina34_cracker 3.40 0067  02.08.2006

@<TRIPOS>MOLECULE
ASD07330012
  76   80    0    0    0
SMALL
NO_CHARGES


@<TRIPOS>ATOM
   1 C1             0.5485    -3.4844     0.8042 C.ar    
   2 C2             0.1964    -2.3270     0.1257 C.ar    
   3 N3             1.0254    -1.3107     0.0138 N.ar    
   4 C4             2.2422    -1.3460     0.5479 C.ar    
   5 C5             2.6661    -2.4949     1.2537 C.ar    
   6 C6             1.8018    -3.5822     1.3824 C.ar    
   7 N7             3.0969    -0.3000     0.4329 N.2     
   8 C8             4.2869    -0.3301     0.9528 C.2     
   9 N9             4.7749    -1.3919     1.6460 N.am    
  10 C10            4.0171    -2.4986     1.8300 C.2     
  11 O11            4.4385    -3.4585     2.4487 O.2     
  12 C12            6.0725    -1.3412     2.1742 C.ar    
  13 C13            7.0285    -0.5208     1.5902 C.ar    
  14 C14            8.3062    -0.4710     2.1111 C.ar    
  15 C15            8.6349    -1.2405     3.2178 C.ar    
  16 C16            7.6801    -2.0605     3.8017 C.ar    
  17 C17            6.4006    -2.1072     3.2849 C.ar    
  18 C18            5.1732     0.8761     0.7773 C.3     
  19 C19            6.0534     1.0468     2.0171 C.3     
  20 N20            6.0219     0.6910    -0.4024 N.am    
  21 C21            6.7795    -0.5513    -0.5721 C.3     
  22 C22            6.0004    -1.4994    -1.4468 C.ar    
  23 C23            6.5618    -1.9803    -2.6283 C.ar    
  24 C24            5.8356    -2.8575    -3.4326 C.ar    
  25 C25            4.5664    -3.2447    -3.0554 C.ar    
  26 C26            4.0137    -2.7637    -1.8813 C.ar    
  27 C27            4.7321    -1.8975    -1.0766 C.ar    
  28 B28            8.0065    -1.5354    -3.0524 Du      
  29 O29            8.9255    -1.0788    -2.0709 O.3     
  30 O30            8.3942    -1.5897    -4.4173 O.3     
  31 C31            6.1056     1.6636    -1.3316 C.2     
  32 C32            7.2032     1.6274    -2.3635 C.3     
  33 O33            5.2975     2.5680    -1.3373 O.2     
  34 C34            7.0650     2.8113    -3.2857 C.ar    
  35 C35            7.7036     4.0000    -2.9844 C.ar    
  36 C36            6.3044     2.7061    -4.4352 C.ar    
  37 C37            6.1773     3.7910    -5.2820 C.ar    
  38 C38            6.8119     4.9834    -4.9786 C.ar    
  39 C39            7.5779     5.0860    -3.8295 C.ar    
  40 F40            6.6883     6.0445    -5.8056 F       
  41 O41            9.8932    -1.1914     3.7300 O.3     
  42 C42           11.6182    -1.8225     5.3006 C.3     
  43 C43           10.1620    -2.0098     4.8701 C.3     
  44 C44            8.2689     6.3834    -3.4975 C.3     
  45 F45            8.9759     6.2417    -2.2986 F       
  46 F46            9.1571     6.7151    -4.5262 F       
  47 F47            7.3153     7.3977    -3.3595 F       
  48 H48           -0.1526    -4.3020     0.8845 H       
  49 H49           -0.7836    -2.2581    -0.3230 H       
  50 H50            2.1011    -4.4717     1.9169 H       
  51 H51            6.7728     0.0780     0.7285 H       
  52 H52            9.0499     0.1668     1.6568 H       
  53 H53            7.9367    -2.6596     4.6629 H       
  54 H54            5.6574    -2.7452     3.7397 H       
  55 H55            4.5557     1.7645     0.6449 H       
  56 H56            5.8629     0.2300     2.7132 H       
  57 H57            7.1027     1.0356     1.7221 H       
  58 H58            5.8217     1.9966     2.4991 H       
  59 H59            7.7390    -0.3307    -1.0398 H       
  60 H60            6.9473    -1.0105     0.4021 H       
  61 H61            6.2657    -3.2329    -4.3493 H       
  62 H62            4.0029    -3.9242    -3.6776 H       
  63 H63            3.0196    -3.0692    -1.5900 H       
  64 H64            4.2961    -1.5254    -0.1612 H       
  65 H65            9.8118    -0.9012    -2.4144 H       
  66 H66            9.3010    -1.2962    -4.5806 H       
  67 H67            8.1719     1.6663    -1.8651 H       
  68 H68            7.1286     0.7061    -2.9412 H       
  69 H69            8.3006     4.0799    -2.0880 H       
  70 H70            5.8097     1.7757    -4.6718 H       
  71 H71            5.5833     3.7085    -6.1802 H       
  72 H72           12.2787    -2.1105     4.4827 H       
  73 H73           11.7901    -0.7767     5.5553 H       
  74 H74           11.8232    -2.4468     6.1702 H       
  75 H75            9.5014    -1.7218     5.6879 H       
  76 H76            9.9901    -3.0556     4.6154 H       
@<TRIPOS>BOND
   1    1    2 ar
   2    1    6 ar
   3    1   48 1
   4    2    3 ar
   5    2   49 1
   6    3    4 ar
   7    4    5 ar
   8    4    7 1
   9    5    6 ar
  10    5   10 1
  11    6   50 1
  12    7    8 2
  13    8    9 1
  14    8   18 1
  15    9   10 am
  16    9   12 1
  17   10   11 2
  18   12   13 ar
  19   12   17 ar
  20   13   14 ar
  21   13   51 1
  22   14   15 ar
  23   14   52 1
  24   15   16 ar
  25   15   41 1
  26   16   17 ar
  27   16   53 1
  28   17   54 1
  29   18   19 1
  30   18   20 1
  31   18   55 1
  32   19   56 1
  33   19   57 1
  34   19   58 1
  35   20   21 1
  36   20   31 am
  37   21   22 1
  38   21   59 1
  39   21   60 1
  40   22   23 ar
  41   22   27 ar
  42   23   24 ar
  43   23   28 1
  44   24   25 ar
  45   24   61 1
  46   25   26 ar
  47   25   62 1
  48   26   27 ar
  49   26   63 1
  50   27   64 1
  51   28   29 1
  52   28   30 1
  53   29   65 1
  54   30   66 1
  55   31   32 1
  56   31   33 2
  57   32   34 1
  58   32   67 1
  59   32   68 1
  60   34   35 ar
  61   34   36 ar
  62   35   39 ar
  63   35   69 1
  64   36   37 ar
  65   36   70 1
  66   37   38 ar
  67   37   71 1
  68   38   39 ar
  69   38   40 1
  70   39   44 1
  71   41   43 1
  72   42   43 1
  73   42   72 1
  74   42   73 1
  75   42   74 1
  76   43   75 1
  77   43   76 1
  78   44   45 1
  79   44   46 1
  80   44   47 1

#	End of record

