#	Name: ASD03910119
#	Creating user name:	WinNT
#	Creation time:	15. 06. 2019 20:47

#	Modifying user name:	WinNT
#	Modification time:	15. 06. 2019 20:47

#	Program:	/corina/corina34_cracker 3.40 0067  02.08.2006

@<TRIPOS>MOLECULE
ASD03910119
  41   42    0    0    0
SMALL
NO_CHARGES


@<TRIPOS>ATOM
   1 O1             0.7728     1.1714     0.0852 O.3     
   2 C2             1.0925    -0.1391     0.2174 C.ar    
   3 C3             1.3490    -0.6738     1.4907 C.ar    
   4 C4             1.6770    -2.0204     1.6218 C.ar    
   5 C5             1.7485    -2.8294     0.4861 C.ar    
   6 C6             1.4904    -2.2838    -0.7791 C.ar    
   7 C7             1.1607    -0.9536    -0.9057 C.ar    
   8 C8             2.0947    -4.2516     0.6170 C.2     
   9 O9             2.1567    -4.9539    -0.3699 O.2     
  10 C10            1.2715     0.1886     2.6847 C.2     
  11 O11            0.9854     1.3636     2.5679 O.2     
  12 O12            1.5179    -0.3267     3.9051 O.3     
  13 O13            2.8125     5.5717    -0.6220 O.3     
  14 C14            4.0158     6.1673    -0.8067 C.ar    
  15 C15            4.5866     6.2133    -2.0893 C.ar    
  16 C16            5.8228     6.8261    -2.2745 C.ar    
  17 C17            6.4861     7.3906    -1.1833 C.ar    
  18 C18            5.9060     7.3382     0.0918 C.ar    
  19 C19            4.6812     6.7369     0.2714 C.ar    
  20 C20            1.7916     2.0380    -0.0409 C.2     
  21 C21            2.8157     4.2474    -0.3959 C.2     
  22 C22            7.7916     8.0387    -1.3712 C.2     
  23 O23            8.3674     8.5289    -0.4230 O.2     
  24 O24            3.8633     3.6581    -0.2730 O.2     
  25 O25            2.9315     1.6478     0.0501 O.2     
  26 C26            1.5127     3.4969    -0.2958 C.3     
  27 C27            3.8787     5.6138    -3.2361 C.2     
  28 O28            2.8001     5.0791    -3.0722 O.2     
  29 O29            4.4283     5.6592    -4.4655 O.3     
  30 H30            1.8756    -2.4375     2.5980 H       
  31 H31            1.5463    -2.9104    -1.6570 H       
  32 H32            0.9586    -0.5403    -1.8828 H       
  33 H33            2.2938    -4.6715     1.5919 H       
  34 H34            1.4550     0.2773     4.6576 H       
  35 H35            6.2671     6.8644    -3.2581 H       
  36 H36            6.4201     7.7749     0.9353 H       
  37 H37            4.2375     6.7037     1.2556 H       
  38 H38            8.2383     8.0785    -2.3537 H       
  39 H39            0.9594     3.6034    -1.2288 H       
  40 H40            0.9219     3.9027     0.5254 H       
  41 H41            3.9270     5.2528    -5.1857 H       
@<TRIPOS>BOND
   1    1    2 1
   2    1   20 1
   3    2    3 ar
   4    2    7 ar
   5    3    4 ar
   6    3   10 1
   7    4    5 ar
   8    4   30 1
   9    5    6 ar
  10    5    8 1
  11    6    7 ar
  12    6   31 1
  13    7   32 1
  14    8    9 2
  15    8   33 1
  16   10   11 2
  17   10   12 1
  18   12   34 1
  19   13   14 1
  20   13   21 1
  21   14   15 ar
  22   14   19 ar
  23   15   16 ar
  24   15   27 1
  25   16   17 ar
  26   16   35 1
  27   17   18 ar
  28   17   22 1
  29   18   19 ar
  30   18   36 1
  31   19   37 1
  32   20   25 2
  33   20   26 1
  34   21   24 2
  35   21   26 1
  36   22   23 2
  37   22   38 1
  38   26   39 1
  39   26   40 1
  40   27   28 2
  41   27   29 1
  42   29   41 1

#	End of record

