#	Name: ASD01915799
#	Creating user name:	WinNT
#	Creation time:	15. 06. 2019 20:06

#	Modifying user name:	WinNT
#	Modification time:	15. 06. 2019 20:06

#	Program:	/corina/corina34_cracker 3.40 0067  02.08.2006

@<TRIPOS>MOLECULE
ASD01915799
  46   49    0    0    0
SMALL
NO_CHARGES


@<TRIPOS>ATOM
   1 C1            -0.0087     1.4172     0.0995 C.2     
   2 N2             0.0284     0.0454    -0.0147 N.pl3   
   3 C3            -1.2051    -0.7400    -0.1425 C.3     
   4 C4            -2.3389    -0.0221     0.5877 C.3     
   5 N5            -2.4044     1.3988     0.2637 N.am    
   6 C6            -1.2833     2.1496     0.1394 C.2     
   7 C7             1.2863     1.8476     0.1715 C.2     
   8 C8             2.0605     0.6812     0.1068 C.2     
   9 N9             1.2439    -0.3413     0.0027 N.2     
  10 C10            3.5653     0.6128     0.1485 C.3     
  11 O11            4.0990     1.9332     0.2657 O.3     
  12 C12            5.4521     2.0495     0.3168 C.ar    
  13 O13           -1.3286     3.3629     0.0652 O.2     
  14 C14            6.0381     3.3019     0.4304 C.ar    
  15 C15            6.2495     0.9156     0.2610 C.ar    
  16 C16            7.6247     1.0365     0.3130 C.ar    
  17 C17            8.2064     2.2862     0.4206 C.ar    
  18 C18            7.4137     3.4174     0.4821 C.ar    
  19 C19           -3.6493     1.9981     0.0777 C.ar    
  20 N20           -4.2853     2.5414     1.1042 N.ar    
  21 C21           -4.2288     2.0328    -1.1956 C.ar    
  22 N22           -5.4104     2.6032    -1.3641 N.ar    
  23 C23           -6.0406     3.1388    -0.3302 C.ar    
  24 C24           -5.4672     3.1097     0.9246 C.ar    
  25 C25           -7.3866     3.7878    -0.5255 C.3     
  26 O26           -3.5806     1.4835    -2.2541 O.3     
  27 C27           -4.2331     1.5563    -3.5233 C.3     
  28 H28           -1.4611    -0.8463    -1.1967 H       
  29 H29           -1.0558    -1.7260     0.2974 H       
  30 H30           -3.2851    -0.4895     0.3148 H       
  31 H31           -2.1911    -0.1319     1.6620 H       
  32 H32            1.6370     2.8653     0.2587 H       
  33 H33            3.8784     0.0170     1.0059 H       
  34 H34            3.9337     0.1521    -0.7681 H       
  35 H35            5.4193     4.1858     0.4781 H       
  36 H36            5.7956    -0.0608     0.1774 H       
  37 H37            8.2459     0.1541     0.2700 H       
  38 H38            9.2817     2.3786     0.4611 H       
  39 H39            7.8705     4.3924     0.5657 H       
  40 H40           -5.9865     3.5483     1.7638 H       
  41 H41           -8.1719     3.0446    -0.3874 H       
  42 H42           -7.5127     4.5892     0.2025 H       
  43 H43           -7.4488     4.1992    -1.5330 H       
  44 H44           -5.1927     1.0422    -3.4686 H       
  45 H45           -4.3952     2.6009    -3.7891 H       
  46 H46           -3.6091     1.0813    -4.2804 H       
@<TRIPOS>BOND
   1    1    2 1
   2    1    7 2
   3    1    6 1
   4    2    3 1
   5    2    9 1
   6    3    4 1
   7    3   28 1
   8    3   29 1
   9    4    5 1
  10    4   30 1
  11    4   31 1
  12    5    6 am
  13    5   19 1
  14    6   13 2
  15    7    8 1
  16    7   32 1
  17    8    9 2
  18    8   10 1
  19   10   11 1
  20   10   33 1
  21   10   34 1
  22   11   12 1
  23   12   14 ar
  24   12   15 ar
  25   14   18 ar
  26   14   35 1
  27   15   16 ar
  28   15   36 1
  29   16   17 ar
  30   16   37 1
  31   17   18 ar
  32   17   38 1
  33   18   39 1
  34   19   21 ar
  35   19   20 ar
  36   20   24 ar
  37   21   22 ar
  38   21   26 1
  39   22   23 ar
  40   23   24 ar
  41   23   25 1
  42   24   40 1
  43   25   41 1
  44   25   42 1
  45   25   43 1
  46   26   27 1
  47   27   44 1
  48   27   45 1
  49   27   46 1

#	End of record

