#	Name: ASD03082416
#	Creating user name:	WinNT
#	Creation time:	15. 06. 2019 20:27

#	Modifying user name:	WinNT
#	Modification time:	15. 06. 2019 20:27

#	Program:	/corina/corina34_cracker 3.40 0067  02.08.2006

@<TRIPOS>MOLECULE
ASD03082416
  50   53    0    0    0
SMALL
NO_CHARGES


@<TRIPOS>ATOM
   1 C1             1.1655     3.4998     0.0368 C.ar    
   2 C2             2.3563     4.2096     0.1190 C.ar    
   3 C3             2.3357     5.5904     0.1536 C.ar    
   4 C4             1.1312     6.2678     0.1065 C.ar    
   5 C5            -0.0586     5.5656     0.0246 C.ar    
   6 Cl6           -1.5683     6.4205    -0.0349 Cl      
   7 N7             1.1838     2.1018     0.0020 N.pl3   
   8 C8             2.3998     1.4211    -0.1188 C.2     
   9 C9             2.5760     0.0288    -0.0419 C.2     
  10 N10            3.5724     1.9718    -0.3293 N.2     
  11 N11            4.5308     0.9518    -0.3878 N.pl3   
  12 C12            3.8917    -0.2336    -0.2081 C.2     
  13 C13            5.9024     1.1231    -0.5978 C.ar    
  14 C14            6.8304     0.2933     0.0280 C.ar    
  15 C15            6.3766     2.1247    -1.4433 C.ar    
  16 C16            7.7374     2.2606    -1.6244 C.ar    
  17 N17            8.5852     1.4577    -1.0095 N.ar    
  18 C18            8.1755     0.4949    -0.2059 C.ar    
  19 C19            8.2625     3.3394    -2.5364 C.3     
  20 H20            8.9020    -0.1408     0.2783 H       
  21 C21            4.5343    -1.5966    -0.1957 C.3     
  22 O22            3.5334    -2.5932     0.0207 O.3     
  23 C23           -0.0455     4.1821    -0.0052 C.ar    
  24 C24            4.0400    -3.9291     0.0502 C.3     
  25 C25            2.9044    -4.8920     0.2831 C.ar    
  26 C26            2.2169    -5.4230    -0.7922 C.ar    
  27 C27            1.1752    -6.3062    -0.5786 C.ar    
  28 C28            0.8213    -6.6589     0.7103 C.ar    
  29 C29            1.5095    -6.1286     1.7856 C.ar    
  30 C30            2.5540    -5.2487     1.5718 C.ar    
  31 F31           -1.2065     3.4959    -0.0857 F       
  32 H32            3.2981     3.6823     0.1562 H       
  33 H33            3.2620     6.1419     0.2179 H       
  34 H34            1.1188     7.3474     0.1342 H       
  35 H35            0.3533     1.6042     0.0618 H       
  36 H36            1.7980    -0.7022     0.1217 H       
  37 H37            6.5017    -0.4965     0.6873 H       
  38 H38            5.6881     2.7850    -1.9498 H       
  39 H39            8.4297     4.2508    -1.9624 H       
  40 H40            9.2023     3.0130    -2.9818 H       
  41 H41            7.5353     3.5346    -3.3245 H       
  42 H42            5.0246    -1.7758    -1.1526 H       
  43 H43            5.2724    -1.6431     0.6050 H       
  44 H44            4.5200    -4.1567    -0.9016 H       
  45 H45            4.7679    -4.0239     0.8560 H       
  46 H46            2.4933    -5.1474    -1.7992 H       
  47 H47            0.6376    -6.7205    -1.4187 H       
  48 H48            0.0070    -7.3484     0.8773 H       
  49 H49            1.2328    -6.4039     2.7926 H       
  50 H50            3.0916    -4.8345     2.4119 H       
@<TRIPOS>BOND
   1    1    2 ar
   2    1    7 1
   3    1   23 ar
   4    2    3 ar
   5    2   32 1
   6    3    4 ar
   7    3   33 1
   8    4    5 ar
   9    4   34 1
  10    5   23 ar
  11    5    6 1
  12    7    8 1
  13    7   35 1
  14    8    9 1
  15    8   10 2
  16    9   12 2
  17    9   36 1
  18   10   11 1
  19   11   12 1
  20   11   13 1
  21   12   21 1
  22   13   14 ar
  23   13   15 ar
  24   14   18 ar
  25   14   37 1
  26   15   16 ar
  27   15   38 1
  28   16   17 ar
  29   16   19 1
  30   17   18 ar
  31   18   20 1
  32   19   39 1
  33   19   40 1
  34   19   41 1
  35   21   22 1
  36   21   42 1
  37   21   43 1
  38   22   24 1
  39   23   31 1
  40   24   25 1
  41   24   44 1
  42   24   45 1
  43   25   26 ar
  44   25   30 ar
  45   26   27 ar
  46   26   46 1
  47   27   28 ar
  48   27   47 1
  49   28   29 ar
  50   28   48 1
  51   29   30 ar
  52   29   49 1
  53   30   50 1

#	End of record

