#	Name: ASD01883595
#	Creating user name:	WinNT
#	Creation time:	15. 06. 2019 19:46

#	Modifying user name:	WinNT
#	Modification time:	15. 06. 2019 19:46

#	Program:	/corina/corina34_cracker 3.40 0067  02.08.2006

@<TRIPOS>MOLECULE
ASD01883595
  48   51    0    0    0
SMALL
NO_CHARGES


@<TRIPOS>ATOM
   1 C1            -0.5300     1.4678     0.1659 C.2     
   2 C2            -0.6535     0.1335     0.3254 C.2     
   3 N3             0.3118    -0.5884     0.9546 N.am    
   4 C4             1.4203     0.0023     1.4377 C.2     
   5 C5             1.5989     1.3859     1.2984 C.2     
   6 C6             0.6182     2.1306     0.6577 C.2     
   7 O7             2.2724    -0.6684     1.9992 O.2     
   8 Cl8            3.0256     2.1565     1.9184 Cl      
   9 C9             0.7720     3.5931     0.4915 C.ar    
  10 C10            0.0318     4.4707     1.2887 C.ar    
  11 C11            0.1790     5.8346     1.1296 C.ar    
  12 C12            1.0605     6.3326     0.1798 C.ar    
  13 C13            1.7972     5.4616    -0.6144 C.ar    
  14 C14            1.6609     4.0998    -0.4578 C.ar    
  15 O15            1.2030     7.6742     0.0258 O.3     
  16 C16            2.1290     8.3084     0.7890 C.ar    
  17 C17            2.9813     7.5888     1.6228 C.ar    
  18 C18            3.9097     8.2706     2.3827 C.ar    
  19 N19            3.9951     9.5861     2.3259 N.ar    
  20 C20            3.2053    10.3027     1.5483 C.ar    
  21 C21            2.2549     9.6953     0.7540 C.ar    
  22 C22            0.1419    -2.0352     1.1098 C.3     
  23 C23            0.7464    -2.7522    -0.0991 C.3     
  24 C24            0.5689    -4.2632     0.0629 C.3     
  25 C25            3.3471    11.8028     1.5239 C.3     
  26 C26            1.0048    -5.1547    -1.1017 C.3     
  27 C27            1.8347    -5.1143     0.1831 C.3     
  28 F28           -0.8262     3.9857     2.2127 F       
  29 H29           -1.3034     2.0269    -0.3397 H       
  30 H30           -1.5322    -0.3684    -0.0519 H       
  31 H31           -0.3923     6.5144     1.7444 H       
  32 H32            2.4815     5.8534    -1.3524 H       
  33 H33            2.2343     3.4247    -1.0759 H       
  34 H34            2.9164     6.5120     1.6742 H       
  35 H35            4.5745     7.7207     3.0323 H       
  36 H36            1.6120    10.2875     0.1197 H       
  37 H37            0.6469    -2.3650     2.0177 H       
  38 H38           -0.9200    -2.2710     1.1785 H       
  39 H39            0.2414    -2.4224    -1.0071 H       
  40 H40            1.8083    -2.5164    -0.1679 H       
  41 H41           -0.3040    -4.5753     0.6362 H       
  42 H42            4.0639    12.0875     0.7537 H       
  43 H43            2.3800    12.2557     1.3054 H       
  44 H44            3.6999    12.1503     2.4949 H       
  45 H45            0.4188    -6.0533    -1.2943 H       
  46 H46            1.4180    -4.6646    -1.9833 H       
  47 H47            2.7938    -4.5978     0.1467 H       
  48 H48            1.7947    -5.9865     0.8357 H       
@<TRIPOS>BOND
   1    1    2 2
   2    1    6 1
   3    1   29 1
   4    2    3 1
   5    2   30 1
   6    3    4 am
   7    3   22 1
   8    4    5 1
   9    4    7 2
  10    5    6 2
  11    5    8 1
  12    6    9 1
  13    9   10 ar
  14    9   14 ar
  15   10   11 ar
  16   10   28 1
  17   11   12 ar
  18   11   31 1
  19   12   13 ar
  20   12   15 1
  21   13   14 ar
  22   13   32 1
  23   14   33 1
  24   15   16 1
  25   16   17 ar
  26   16   21 ar
  27   17   18 ar
  28   17   34 1
  29   18   19 ar
  30   18   35 1
  31   19   20 ar
  32   20   21 ar
  33   20   25 1
  34   21   36 1
  35   22   23 1
  36   22   37 1
  37   22   38 1
  38   23   24 1
  39   23   39 1
  40   23   40 1
  41   24   26 1
  42   24   27 1
  43   24   41 1
  44   25   42 1
  45   25   43 1
  46   25   44 1
  47   26   27 1
  48   26   45 1
  49   26   46 1
  50   27   47 1
  51   27   48 1

#	End of record

