#	Name: ASD08150451
#	Creating user name:	WinNT
#	Creation time:	15. 06. 2019 21:16

#	Modifying user name:	WinNT
#	Modification time:	15. 06. 2019 21:16

#	Program:	/corina/corina34_cracker 3.40 0067  02.08.2006

@<TRIPOS>MOLECULE
ASD08150451
  49   52    0    0    0
SMALL
NO_CHARGES


@<TRIPOS>ATOM
   1 C1            -0.0157     1.3099     0.0092 C.ar    
   2 N2             0.0021    -0.0041     0.0020 N.ar    
   3 C3             1.1588    -0.6786    -0.0127 C.ar    
   4 C4             2.3612     0.0334    -0.0204 C.ar    
   5 C5             2.2854     1.4498    -0.0121 C.ar    
   6 N6             1.0939     2.0284     0.0025 N.ar    
   7 C7             3.5142    -0.8475    -0.0357 C.2     
   8 C8             3.2272    -2.1346    -0.0395 C.2     
   9 S9             1.4946    -2.4038    -0.0246 S.3     
  10 N10            3.4377     2.2149    -0.0186 N.3     
  11 C11            3.1176     3.6497    -0.0079 C.3     
  12 C12            4.4175     4.4567     0.0448 C.3     
  13 O13            5.2430     4.0944    -1.0654 O.3     
  14 C14            5.5748     2.7039    -1.1066 C.3     
  15 C15            4.2866     1.8791    -1.1710 C.3     
  16 C16            4.2575    -3.2343    -0.0548 C.3     
  17 N17            4.6053    -3.5987     1.3252 N.3     
  18 C18            5.4224    -4.8190     1.3575 C.3     
  19 C19            5.9136    -5.0631     2.7883 C.3     
  20 N20            4.7495    -5.0702     3.6872 N.am    
  21 C21            3.8076    -3.9428     3.6148 C.3     
  22 C22            3.3993    -3.7429     2.1515 C.3     
  23 S23            4.5055    -6.3147     4.7520 S.o2    
  24 O24            3.1003    -6.3244     4.9636 O.2     
  25 O25            5.1639    -7.4224     4.1533 O.2     
  26 C26            5.3725    -5.7974     6.2591 C.3     
  27 Cl27          -1.5464     2.1289     0.0209 Cl      
  28 H28            4.5288    -0.4775    -0.0437 H       
  29 H29            2.5662     3.9063    -0.9125 H       
  30 H30            2.5101     3.8805     0.8672 H       
  31 H31            4.1874     5.5210    -0.0047 H       
  32 H32            4.9429     4.2402     0.9750 H       
  33 H33            6.1817     2.5005    -1.9889 H       
  34 H34            6.1338     2.4364    -0.2099 H       
  35 H35            4.5324     0.8175    -1.1449 H       
  36 H36            3.7539     2.1074    -2.0941 H       
  37 H37            3.8516    -4.1053    -0.5692 H       
  38 H38            5.1505    -2.8884    -0.5753 H       
  39 H39            4.8220    -5.6675     1.0293 H       
  40 H40            6.2790    -4.7008     0.6939 H       
  41 H41            6.4231    -6.0252     2.8414 H       
  42 H42            6.5977    -4.2667     3.0814 H       
  43 H43            2.9247    -4.1644     4.2144 H       
  44 H44            4.2893    -3.0388     3.9874 H       
  45 H45            2.7887    -2.8442     2.0638 H       
  46 H46            2.8271    -4.6063     1.8122 H       
  47 H47            4.9453    -4.8623     6.6213 H       
  48 H48            5.2632    -6.5669     7.0234 H       
  49 H49            6.4300    -5.6523     6.0383 H       
@<TRIPOS>BOND
   1    1    2 ar
   2    1    6 ar
   3    1   27 1
   4    2    3 ar
   5    3    4 ar
   6    3    9 1
   7    4    5 ar
   8    4    7 1
   9    5    6 ar
  10    5   10 1
  11    7    8 2
  12    7   28 1
  13    8    9 1
  14    8   16 1
  15   10   11 1
  16   10   15 1
  17   11   12 1
  18   11   29 1
  19   11   30 1
  20   12   13 1
  21   12   31 1
  22   12   32 1
  23   13   14 1
  24   14   15 1
  25   14   33 1
  26   14   34 1
  27   15   35 1
  28   15   36 1
  29   16   17 1
  30   16   37 1
  31   16   38 1
  32   17   18 1
  33   17   22 1
  34   18   19 1
  35   18   39 1
  36   18   40 1
  37   19   20 1
  38   19   41 1
  39   19   42 1
  40   20   21 1
  41   20   23 am
  42   21   22 1
  43   21   43 1
  44   21   44 1
  45   22   45 1
  46   22   46 1
  47   23   24 2
  48   23   25 2
  49   23   26 1
  50   26   47 1
  51   26   48 1
  52   26   49 1

#	End of record

