#	Name: ASD01900684
#	Creating user name:	WinNT
#	Creation time:	15. 06. 2019 19:52

#	Modifying user name:	WinNT
#	Modification time:	15. 06. 2019 19:52

#	Program:	/corina/corina34_cracker 3.40 0067  02.08.2006

@<TRIPOS>MOLECULE
ASD01900684
  32   35    0    0    0
SMALL
NO_CHARGES


@<TRIPOS>ATOM
   1 C1            -0.0183     1.4026     0.1325 C.ar    
   2 C2            -0.0082     0.0178     0.1215 C.ar    
   3 C3             1.1829    -0.6776     0.0632 C.ar    
   4 C4             2.3875     0.0115     0.0141 C.ar    
   5 C5             2.3724     1.4127     0.0293 C.ar    
   6 O6             3.5587    -0.6568    -0.0549 O.3     
   7 C7             4.7338    -0.0515     0.1920 C.2     
   8 C8             4.8719     1.2983     0.2222 C.2     
   9 C9             3.6748     2.1255    -0.0106 C.2     
  10 C10            5.9196    -0.8878     0.4405 C.2     
  11 N11            7.1186    -0.3075     0.6925 N.2     
  12 C12            8.1887    -1.0084     0.9167 C.2     
  13 N13            8.1619    -2.3758     0.9103 N.pl3   
  14 C14            6.9691    -3.0312     0.6596 C.2     
  15 C15            5.8105    -2.2683     0.4227 C.2     
  16 C16            1.1701     2.1048     0.0865 C.ar    
  17 C17            9.1280    -3.3147     1.1130 C.2     
  18 C18            8.5767    -4.5482     0.9969 C.2     
  19 C19            7.2168    -4.3902     0.7113 C.2     
  20 Br20           9.4878    -6.1943     1.1868 Br      
  21 N21            3.7548     3.4146    -0.2398 N.2     
  22 O22            2.5957     4.1423    -0.6033 O.3     
  23 H23           -0.9575     1.9344     0.1727 H       
  24 H24           -0.9418    -0.5237     0.1594 H       
  25 H25            1.1779    -1.7576     0.0560 H       
  26 H26            5.8326     1.7536     0.4119 H       
  27 H27            9.1212    -0.4998     1.1123 H       
  28 H28            4.8630    -2.7468     0.2238 H       
  29 H29            1.1642     3.1847     0.0950 H       
  30 H30           10.1658    -3.1096     1.3305 H       
  31 H31            6.4964    -5.1805     0.5600 H       
  32 H32            2.7534     5.0848    -0.7516 H       
@<TRIPOS>BOND
   1    1    2 ar
   2    1   16 ar
   3    1   23 1
   4    2    3 ar
   5    2   24 1
   6    3    4 ar
   7    3   25 1
   8    4    5 ar
   9    4    6 1
  10    5   16 ar
  11    5    9 1
  12    6    7 1
  13    7    8 2
  14    7   10 1
  15    8    9 1
  16    8   26 1
  17    9   21 2
  18   10   11 1
  19   10   15 2
  20   11   12 2
  21   12   13 1
  22   12   27 1
  23   13   14 1
  24   13   17 1
  25   14   15 1
  26   14   19 2
  27   15   28 1
  28   16   29 1
  29   17   18 2
  30   17   30 1
  31   18   19 1
  32   18   20 1
  33   19   31 1
  34   21   22 1
  35   22   32 1

#	End of record

