#	Name: ASD01410026
#	Creating user name:	WinNT
#	Creation time:	15. 06. 2019 19:16

#	Modifying user name:	WinNT
#	Modification time:	15. 06. 2019 19:16

#	Program:	/corina/corina34_cracker 3.40 0067  02.08.2006

@<TRIPOS>MOLECULE
ASD01410026
  34   35    0    0    0
SMALL
NO_CHARGES


@<TRIPOS>ATOM
   1 C1            -0.0064     1.4051     0.0868 C.ar    
   2 C2             0.0082     0.0228     0.0731 C.ar    
   3 C3             1.2105    -0.6567     0.0456 C.ar    
   4 C4             2.4061     0.0500     0.0311 C.ar    
   5 C5             2.3888     1.4390     0.0444 C.ar    
   6 C6             1.1829     2.1128     0.0725 C.ar    
   7 N7             3.6233    -0.6345     0.0037 N.pl3   
   8 C8             4.8836     0.1125    -0.0115 C.3     
   9 C9             6.0398    -0.8537    -0.0404 C.2     
  10 N10            7.3051    -0.3899    -0.0583 N.am    
  11 C11            8.3737    -1.2787     0.0282 C.ar    
  12 C12            8.2672    -2.4241     0.8050 C.ar    
  13 C13            9.3278    -3.3040     0.8894 C.ar    
  14 C14           10.5039    -3.0529     0.2017 C.ar    
  15 C15           10.6282    -1.9209    -0.5745 C.ar    
  16 C16            9.5619    -1.0238    -0.6742 C.ar    
  17 O17            5.8317    -2.0484    -0.0476 O.2     
  18 C18            9.6878     0.1885    -1.5029 C.2     
  19 O19           10.8669     0.4897    -2.0814 O.3     
  20 O20            8.7283     0.9164    -1.6644 O.2     
  21 Br21           1.1574     4.0036     0.0907 Br      
  22 H22           -0.9479     1.9339     0.1042 H       
  23 H23           -0.9216    -0.5265     0.0844 H       
  24 H24            1.2208    -1.7366     0.0356 H       
  25 H25            3.3168     1.9914     0.0336 H       
  26 H26            3.6343    -1.6044    -0.0053 H       
  27 H27            4.9187     0.7478    -0.8965 H       
  28 H28            4.9497     0.7317     0.8831 H       
  29 H29            7.4715     0.5629    -0.1314 H       
  30 H30            7.3537    -2.6272     1.3443 H       
  31 H31            9.2402    -4.1934     1.4957 H       
  32 H32           11.3276    -3.7476     0.2745 H       
  33 H33           11.5474    -1.7297    -1.1084 H       
  34 H34           10.9008     1.2950    -2.6157 H       
@<TRIPOS>BOND
   1    1    2 ar
   2    1    6 ar
   3    1   22 1
   4    2    3 ar
   5    2   23 1
   6    3    4 ar
   7    3   24 1
   8    4    5 ar
   9    4    7 1
  10    5    6 ar
  11    5   25 1
  12    6   21 1
  13    7    8 1
  14    7   26 1
  15    8    9 1
  16    8   27 1
  17    8   28 1
  18    9   10 am
  19    9   17 2
  20   10   11 1
  21   10   29 1
  22   11   12 ar
  23   11   16 ar
  24   12   13 ar
  25   12   30 1
  26   13   14 ar
  27   13   31 1
  28   14   15 ar
  29   14   32 1
  30   15   16 ar
  31   15   33 1
  32   16   18 1
  33   18   19 1
  34   18   20 2
  35   19   34 1

#	End of record

