#	Name: ASD01912300
#	Creating user name:	WinNT
#	Creation time:	15. 06. 2019 19:59

#	Modifying user name:	WinNT
#	Modification time:	15. 06. 2019 19:59

#	Program:	/corina/corina34_cracker 3.40 0067  02.08.2006

@<TRIPOS>MOLECULE
ASD01912300
  59   61    0    0    0
SMALL
NO_CHARGES


@<TRIPOS>ATOM
   1 C1            -0.0169     1.3937     0.0097 C.ar    
   2 C2             0.0021    -0.0041     0.0020 C.ar    
   3 C3             1.2200    -0.6586    -0.0132 C.ar    
   4 C4             2.3820     0.1017    -0.0202 C.ar    
   5 C5             2.2917     1.4816    -0.0120 C.ar    
   6 N6             1.1202     2.0835     0.0026 N.ar    
   7 C7             3.5515     2.3086    -0.0196 C.3     
   8 C8            -1.2694     2.0877     0.0194 C.1     
   9 C9            -2.2963     2.6567     0.0274 C.1     
  10 C10           -3.5488     3.3508     0.0371 C.2     
  11 N11           -3.6111     7.1939     1.1690 N.am    
  12 C12           -4.8645     6.4304     1.2214 C.3     
  13 C13           -4.8852     5.4347     0.0547 C.3     
  14 C14           -3.5723     4.6828     0.0444 C.2     
  15 C15           -2.2866     5.4804     0.0422 C.3     
  16 C16           -2.3311     6.4750     1.2091 C.3     
  17 S17           -3.6407     8.8460     1.0592 S.o2    
  18 O18           -2.4110     9.1774     0.4290 O.2     
  19 O19           -4.8845     9.1334     0.4351 O.2     
  20 C20           -3.6466     9.4141     2.7819 C.3     
  21 C21           -3.6737    10.9435     2.8145 C.3     
  22 C22           -3.6787    11.4227     4.2675 C.3     
  23 O23           -3.7041    12.8512     4.2979 O.3     
  24 C24           -3.7116    13.4426     5.5223 C.ar    
  25 C25           -3.7359    14.8256     5.6244 C.ar    
  26 C26           -3.7435    15.4263     6.8682 C.ar    
  27 C27           -3.7273    14.6465     8.0151 C.ar    
  28 C28           -3.7039    13.2635     7.9130 C.ar    
  29 C29           -3.7007    12.6627     6.6692 C.ar    
  30 O30           -3.7339    15.2380     9.2395 O.3     
  31 C31           -3.7163    14.3738    10.3775 C.3     
  32 H32           -0.9211    -0.5645     0.0082 H       
  33 H33            1.2665    -1.7376    -0.0191 H       
  34 H34            3.3483    -0.3807    -0.0317 H       
  35 H35            3.8454     2.5135    -1.0490 H       
  36 H36            3.3719     3.2492     0.5010 H       
  37 H37            4.3485     1.7612     0.4837 H       
  38 H38           -4.4745     2.7944     0.0384 H       
  39 H39           -4.9231     5.8885     2.1653 H       
  40 H40           -5.7111     7.1115     1.1355 H       
  41 H41           -5.7089     4.7329     0.1857 H       
  42 H42           -5.0071     5.9731    -0.8852 H       
  43 H43           -1.4375     4.8082     0.1651 H       
  44 H44           -2.1928     6.0227    -0.8988 H       
  45 H45           -1.5099     7.1856     1.1152 H       
  46 H46           -2.2443     5.9358     2.1524 H       
  47 H47           -4.5286     9.0242     3.2901 H       
  48 H48           -2.7489     9.0559     3.2857 H       
  49 H49           -2.7918    11.3335     2.3063 H       
  50 H50           -4.5715    11.3018     2.3106 H       
  51 H51           -4.5607    11.0328     4.7756 H       
  52 H52           -2.7810    11.0645     4.7713 H       
  53 H53           -3.7486    15.4328     4.7313 H       
  54 H54           -3.7618    16.5033     6.9476 H       
  55 H55           -3.6909    12.6563     8.8061 H       
  56 H56           -3.6862    11.5857     6.5898 H       
  57 H57           -3.7238    14.9723    11.2884 H       
  58 H58           -4.5956    13.7300    10.3585 H       
  59 H59           -2.8159    13.7599    10.3536 H       
@<TRIPOS>BOND
   1    1    2 ar
   2    1    6 ar
   3    1    8 1
   4    2    3 ar
   5    2   32 1
   6    3    4 ar
   7    3   33 1
   8    4    5 ar
   9    4   34 1
  10    5    6 ar
  11    5    7 1
  12    7   35 1
  13    7   36 1
  14    7   37 1
  15    8    9 3
  16    9   10 1
  17   10   14 2
  18   10   38 1
  19   11   12 1
  20   11   16 1
  21   11   17 am
  22   12   13 1
  23   12   39 1
  24   12   40 1
  25   13   14 1
  26   13   41 1
  27   13   42 1
  28   14   15 1
  29   15   16 1
  30   15   43 1
  31   15   44 1
  32   16   45 1
  33   16   46 1
  34   17   18 2
  35   17   19 2
  36   17   20 1
  37   20   21 1
  38   20   47 1
  39   20   48 1
  40   21   22 1
  41   21   49 1
  42   21   50 1
  43   22   23 1
  44   22   51 1
  45   22   52 1
  46   23   24 1
  47   24   25 ar
  48   24   29 ar
  49   25   26 ar
  50   25   53 1
  51   26   27 ar
  52   26   54 1
  53   27   28 ar
  54   27   30 1
  55   28   29 ar
  56   28   55 1
  57   29   56 1
  58   30   31 1
  59   31   57 1
  60   31   58 1
  61   31   59 1

#	End of record

