#	Name: ASD07301346
#	Creating user name:	WinNT
#	Creation time:	15. 06. 2019 21:11

#	Modifying user name:	WinNT
#	Modification time:	15. 06. 2019 21:11

#	Program:	/corina/corina34_cracker 3.40 0067  02.08.2006

@<TRIPOS>MOLECULE
ASD07301346
  39   42    0    0    0
SMALL
NO_CHARGES


@<TRIPOS>ATOM
   1 C1             0.0353     1.8740     0.0182 C.2     
   2 C2            -0.1329     0.4117    -0.0064 C.2     
   3 C3             1.0395    -0.3720    -0.1311 C.2     
   4 C4             2.2282     0.2761    -0.2186 C.2     
   5 N5             2.2852     1.6269    -0.1872 N.pl3   
   6 N6             1.2488     2.3729    -0.0755 N.2     
   7 O7            -1.2375    -0.1038     0.0776 O.2     
   8 C8             3.5385     2.2410    -0.2808 C.ar    
   9 C9             3.6285     3.6197    -0.4122 C.ar    
  10 C10            4.8743     4.2250    -0.5048 C.ar    
  11 C11            6.0272     3.4485    -0.4657 C.ar    
  12 C12            5.9335     2.0767    -0.3353 C.ar    
  13 C13            4.6950     1.4717    -0.2367 C.ar    
  14 S14            4.9947     5.9749    -0.6724 S.3     
  15 N15           -1.2118     3.9122     0.8774 N.pl3   
  16 N16           -2.4971     4.4429     0.7115 N.2     
  17 C17           -3.1762     3.6593    -0.0878 C.2     
  18 C18           -2.3607     2.5941    -0.4699 C.2     
  19 C19           -1.1370     2.7642     0.1397 C.2     
  20 C20           -0.1850     4.4626     1.6550 C.ar    
  21 C21            0.0509     5.8308     1.6283 C.ar    
  22 C22            1.0638     6.3705     2.3966 C.ar    
  23 C23            1.8426     5.5500     3.1919 C.ar    
  24 C24            1.6101     4.1871     3.2206 C.ar    
  25 C25            0.5954     3.6420     2.4587 C.ar    
  26 H26            0.9894    -1.4506    -0.1555 H       
  27 H27            3.1405    -0.2940    -0.3142 H       
  28 H28            2.7314     4.2202    -0.4427 H       
  29 H29            6.9969     3.9185    -0.5377 H       
  30 H30            6.8305     1.4758    -0.3056 H       
  31 H31            4.6256     0.3992    -0.1299 H       
  32 H32            5.0529     6.3976     0.6031 H       
  33 H33           -4.1989     3.8121    -0.3996 H       
  34 H34           -2.6387     1.7818    -1.1251 H       
  35 H35           -0.5568     6.4722     1.0072 H       
  36 H36            1.2480     7.4345     2.3761 H       
  37 H37            2.6342     5.9744     3.7915 H       
  38 H38            2.2203     3.5488     3.8424 H       
  39 H39            0.4117     2.5780     2.4847 H       
@<TRIPOS>BOND
   1    1    2 1
   2    1    6 2
   3    1   19 1
   4    2    3 1
   5    2    7 2
   6    3    4 2
   7    3   26 1
   8    4    5 1
   9    4   27 1
  10    5    6 1
  11    5    8 1
  12    8    9 ar
  13    8   13 ar
  14    9   10 ar
  15    9   28 1
  16   10   11 ar
  17   10   14 1
  18   11   12 ar
  19   11   29 1
  20   12   13 ar
  21   12   30 1
  22   13   31 1
  23   14   32 1
  24   15   16 1
  25   15   19 1
  26   15   20 1
  27   16   17 2
  28   17   18 1
  29   17   33 1
  30   18   19 2
  31   18   34 1
  32   20   21 ar
  33   20   25 ar
  34   21   22 ar
  35   21   35 1
  36   22   23 ar
  37   22   36 1
  38   23   24 ar
  39   23   37 1
  40   24   25 ar
  41   24   38 1
  42   25   39 1

#	End of record

