#	Name: ASD03430576
#	Creating user name:	WinNT
#	Creation time:	15. 06. 2019 20:41

#	Modifying user name:	WinNT
#	Modification time:	15. 06. 2019 20:41

#	Program:	/corina/corina34_cracker 3.40 0067  02.08.2006

@<TRIPOS>MOLECULE
ASD03430576
  39   42    0    0    0
SMALL
NO_CHARGES


@<TRIPOS>ATOM
   1 N1            -0.4596     1.4126     1.0192 N.am    
   2 C2            -0.9654     0.4597     1.8211 C.2     
   3 C3             0.1524    -0.0437     2.6851 C.2     
   4 C4             1.3304     0.7370     2.2709 C.ar    
   5 C5             2.6646     0.7451     2.6870 C.ar    
   6 C6             3.5613     1.6158     2.0925 C.ar    
   7 C7             3.1359     2.4720     1.0929 C.ar    
   8 C8             1.8172     2.4711     0.6746 C.ar    
   9 C9             0.8995     1.6069     1.2551 C.ar    
  10 O10           -2.1164     0.0769     1.8424 O.2     
  11 O11            0.0979    -0.9050     3.5386 O.2     
  12 F12            3.0766    -0.0920     3.6642 F       
  13 C13           -1.2375     2.1490     0.0198 C.3     
  14 C14           -1.7439     1.1915    -1.0279 C.ar    
  15 C15           -2.7815     1.5647    -1.8616 C.ar    
  16 C16           -3.2460     0.6864    -2.8226 C.ar    
  17 C17           -2.6727    -0.5650    -2.9503 C.ar    
  18 C18           -1.6346    -0.9379    -2.1171 C.ar    
  19 C19           -1.1671    -0.0579    -1.1590 C.ar    
  20 C20           -2.4062     2.8240     0.6904 C.ar    
  21 C21           -2.3660     4.1817     0.9472 C.ar    
  22 C22           -3.4379     4.8008     1.5624 C.ar    
  23 C23           -4.5503     4.0623     1.9203 C.ar    
  24 C24           -4.5909     2.7048     1.6626 C.ar    
  25 C25           -3.5207     2.0865     1.0436 C.ar    
  26 H26            4.5937     1.6269     2.4095 H       
  27 H27            3.8411     3.1492     0.6340 H       
  28 H28            1.5006     3.1457    -0.1071 H       
  29 H29           -0.6047     2.9013    -0.4510 H       
  30 H30           -3.2294     2.5424    -1.7619 H       
  31 H31           -4.0571     0.9777    -3.4735 H       
  32 H32           -3.0362    -1.2515    -3.7006 H       
  33 H33           -1.1869    -1.9157    -2.2166 H       
  34 H34           -0.3536    -0.3478    -0.5105 H       
  35 H35           -1.4969     4.7586     0.6676 H       
  36 H36           -3.4062     5.8614     1.7637 H       
  37 H37           -5.3876     4.5459     2.4016 H       
  38 H38           -5.4599     2.1277     1.9426 H       
  39 H39           -3.5539     1.0265     0.8389 H       
@<TRIPOS>BOND
   1    1    2 am
   2    1    9 1
   3    1   13 1
   4    2    3 1
   5    2   10 2
   6    3    4 1
   7    3   11 2
   8    4    5 ar
   9    4    9 ar
  10    5    6 ar
  11    5   12 1
  12    6    7 ar
  13    6   26 1
  14    7    8 ar
  15    7   27 1
  16    8    9 ar
  17    8   28 1
  18   13   14 1
  19   13   20 1
  20   13   29 1
  21   14   15 ar
  22   14   19 ar
  23   15   16 ar
  24   15   30 1
  25   16   17 ar
  26   16   31 1
  27   17   18 ar
  28   17   32 1
  29   18   19 ar
  30   18   33 1
  31   19   34 1
  32   20   21 ar
  33   20   25 ar
  34   21   22 ar
  35   21   35 1
  36   22   23 ar
  37   22   36 1
  38   23   24 ar
  39   23   37 1
  40   24   25 ar
  41   24   38 1
  42   25   39 1

#	End of record

