#	Name: ASD08170272
#	Creating user name:	WinNT
#	Creation time:	15. 06. 2019 21:17

#	Modifying user name:	WinNT
#	Modification time:	15. 06. 2019 21:17

#	Program:	/corina/corina34_cracker 3.40 0067  02.08.2006

@<TRIPOS>MOLECULE
ASD08170272
  67   70    0    0    0
SMALL
NO_CHARGES


@<TRIPOS>ATOM
   1 C1            -0.0162     1.3436     0.0094 C.2     
   2 N2             0.0021    -0.0041     0.0020 N.am    
   3 C3             1.2158    -0.6830    -0.0132 C.2     
   4 S4             1.4076    -2.3853    -0.0242 S.3     
   5 C5             3.1580    -2.1679    -0.0404 C.2     
   6 C6             4.1900    -3.2660    -0.0570 C.3     
   7 C7             7.1356    -6.3838     3.2786 C.3     
   8 C8             7.3823    -6.6392     4.7431 C.2     
   9 S9             8.5907    -5.8400     5.7495 S.3     
  10 C10            8.0678    -6.7751     7.0862 C.2     
  11 N11            2.3916    -0.1314    -0.0272 N.2     
  12 N12            3.3971    -0.8949    -0.0360 N.2     
  13 N13            6.7415    -7.4810     5.4904 N.2     
  14 N14            7.1020    -7.5523     6.6983 N.2     
  15 O15            1.0258     1.9642     0.0028 O.2     
  16 C16           -1.3314     2.0792     0.0197 C.3     
  17 N17            8.5909    -6.7128     8.3733 N.am    
  18 C18            8.0910    -7.5042     9.3429 C.2     
  19 C19            8.6578    -7.4367    10.7376 C.3     
  20 O20            7.1849    -8.2707     9.0931 O.2     
  21 C21            4.5536    -3.6458     1.3798 C.3     
  22 C22            6.0928    -5.2751     3.1228 C.3     
  23 C23            7.9185    -8.4292    11.6372 C.3     
  24 C24           -1.0722     3.5871     0.0266 C.3     
  25 O25            8.1672    -9.7768    11.1987 O.3     
  26 O26           -0.4315     3.9861    -1.1983 O.3     
  27 C27           -2.3834     4.3419     0.0722 C.2     
  28 O28           -2.4613     5.0766    -1.0544 O.3     
  29 C29           -1.1092     5.1943    -1.5888 C.3     
  30 O30           -3.2072     4.2941     0.9548 O.2     
  31 C31           -0.4068     6.4128    -0.9864 C.3     
  32 C32           -1.1514     5.3075    -3.1140 C.3     
  33 C33            8.4521    -8.3496    13.0514 C.2     
  34 O34            8.9739    -9.5552    13.3504 O.3     
  35 C35            8.4101   -10.5164    12.4092 C.3     
  36 O36            8.4170    -7.3842    13.7770 O.2     
  37 C37            7.0979   -11.0833    12.9548 C.3     
  38 C38            9.4072   -11.6469    12.1470 C.3     
  39 S39            5.7958    -4.9677     1.3599 S.3     
  40 H40           -0.8313    -0.5005     0.0073 H       
  41 H41            3.7851    -4.1373    -0.5717 H       
  42 H42            5.0822    -2.9183    -0.5777 H       
  43 H43            8.0663    -6.0769     2.8014 H       
  44 H44            6.7692    -7.2959     2.8074 H       
  45 H45           -1.9035     1.8130    -0.8691 H       
  46 H46           -1.8951     1.8033     0.9108 H       
  47 H47            9.3156    -6.0998     8.5731 H       
  48 H48            9.7177    -7.6896    10.7117 H       
  49 H49            8.5346    -6.4278    11.1315 H       
  50 H50            4.9585    -2.7745     1.8946 H       
  51 H51            3.6614    -3.9935     1.9006 H       
  52 H52            5.1621    -5.5820     3.6000 H       
  53 H53            6.4592    -4.3630     3.5940 H       
  54 H54            6.8486    -8.2215    11.6257 H       
  55 H55           -0.4516     3.8575     0.8809 H       
  56 H56           -0.3768     6.3153     0.0988 H       
  57 H57            0.6101     6.4744    -1.3739 H       
  58 H58           -0.9534     7.3169    -1.2550 H       
  59 H59           -1.7029     6.2042    -3.3966 H       
  60 H60           -0.1347     5.3688    -3.5021 H       
  61 H61           -1.6468     4.4302    -3.5299 H       
  62 H62            6.3949   -10.2688    13.1294 H       
  63 H63            6.6745   -11.7800    12.2313 H       
  64 H64            7.2896   -11.6051    13.8924 H       
  65 H65            9.6141   -12.1724    13.0793 H       
  66 H66            8.9843   -12.3437    11.4233 H       
  67 H67           10.3334   -11.2300    11.7517 H       
@<TRIPOS>BOND
   1    1    2 am
   2    1   15 2
   3    1   16 1
   4    2    3 1
   5    2   40 1
   6    3    4 1
   7    3   11 2
   8    4    5 1
   9    5    6 1
  10    5   12 2
  11    6   21 1
  12    6   41 1
  13    6   42 1
  14    7    8 1
  15    7   22 1
  16    7   43 1
  17    7   44 1
  18    8    9 1
  19    8   13 2
  20    9   10 1
  21   10   17 1
  22   10   14 2
  23   11   12 1
  24   13   14 1
  25   16   24 1
  26   16   45 1
  27   16   46 1
  28   17   18 am
  29   17   47 1
  30   18   19 1
  31   18   20 2
  32   19   23 1
  33   19   48 1
  34   19   49 1
  35   21   39 1
  36   21   50 1
  37   21   51 1
  38   22   39 1
  39   22   52 1
  40   22   53 1
  41   23   25 1
  42   23   33 1
  43   23   54 1
  44   24   26 1
  45   24   27 1
  46   24   55 1
  47   25   35 1
  48   26   29 1
  49   27   28 1
  50   27   30 2
  51   28   29 1
  52   29   31 1
  53   29   32 1
  54   31   56 1
  55   31   57 1
  56   31   58 1
  57   32   59 1
  58   32   60 1
  59   32   61 1
  60   33   34 1
  61   33   36 2
  62   34   35 1
  63   35   37 1
  64   35   38 1
  65   37   62 1
  66   37   63 1
  67   37   64 1
  68   38   65 1
  69   38   66 1
  70   38   67 1

#	End of record

