#	Name: ASD03092039
#	Creating user name:	WinNT
#	Creation time:	15. 06. 2019 20:31

#	Modifying user name:	WinNT
#	Modification time:	15. 06. 2019 20:31

#	Program:	/corina/corina34_cracker 3.40 0067  02.08.2006

@<TRIPOS>MOLECULE
ASD03092039
  40   42    0    0    0
SMALL
NO_CHARGES


@<TRIPOS>ATOM
   1 N1            -0.1619     0.9617     0.1791 N.am    
   2 C2            -0.3591    -0.3907     0.0733 C.2     
   3 C3            -1.7026    -0.5994    -0.0258 C.2     
   4 C4            -2.3367     0.6526     0.0207 C.2     
   5 N5            -1.4181     1.5807     0.1489 N.2     
   6 C6             1.0276     1.5842     0.2970 C.2     
   7 N7             1.0884     2.9305     0.2802 N.am    
   8 N8            -3.7146     0.8727    -0.0513 N.pl3   
   9 C9            -4.2266     2.1652     0.1131 C.ar    
  10 C10           -5.6005     2.3666     0.1792 C.ar    
  11 C11           -6.1035     3.6463     0.3419 C.ar    
  12 C12           -5.2369     4.7244     0.4385 C.ar    
  13 C13           -3.8689     4.5234     0.3722 C.ar    
  14 C14           -3.3626     3.2473     0.2161 C.ar    
  15 F15           -7.4383     3.8446     0.4059 F       
  16 C16            0.6917    -1.4311     0.0677 C.ar    
  17 C17            0.4926    -2.6579     0.7111 C.ar    
  18 C18            1.4998    -3.6001     0.6809 C.ar    
  19 N19            2.6366    -3.3568     0.0572 N.ar    
  20 C20            2.8653    -2.2139    -0.5616 C.ar    
  21 C21            1.9111    -1.2186    -0.5863 C.ar    
  22 C22            2.3814     3.6071     0.4083 C.3     
  23 C23            4.1847    -1.9960    -1.2564 C.3     
  24 O24            2.0454     0.9316     0.4186 O.2     
  25 F25           -5.7284     5.9728     0.5972 F       
  26 F26           -6.4437     1.3152     0.0845 F       
  27 H27           -2.1921    -1.5572    -0.1233 H       
  28 H28            0.2759     3.4514     0.1832 H       
  29 H29           -4.3165     0.1298    -0.2153 H       
  30 H30           -3.1961     5.3649     0.4473 H       
  31 H31           -2.2950     3.0926     0.1646 H       
  32 H32           -0.4354    -2.8638     1.2238 H       
  33 H33            1.3558    -4.5497     1.1748 H       
  34 H34            2.1051    -0.2858    -1.0948 H       
  35 H35            2.2319     4.6862     0.3734 H       
  36 H36            2.8415     3.3346     1.3582 H       
  37 H37            3.0330     3.3038    -0.4112 H       
  38 H38            4.1114    -2.3342    -2.2900 H       
  39 H39            4.4341    -0.9350    -1.2380 H       
  40 H40            4.9631    -2.5611    -0.7436 H       
@<TRIPOS>BOND
   1    1    2 1
   2    1    6 am
   3    1    5 1
   4    2    3 2
   5    2   16 1
   6    3    4 1
   7    3   27 1
   8    4    5 2
   9    4    8 1
  10    6    7 am
  11    6   24 2
  12    7   22 1
  13    7   28 1
  14    8    9 1
  15    8   29 1
  16    9   10 ar
  17    9   14 ar
  18   10   11 ar
  19   10   26 1
  20   11   12 ar
  21   11   15 1
  22   12   13 ar
  23   12   25 1
  24   13   14 ar
  25   13   30 1
  26   14   31 1
  27   16   17 ar
  28   16   21 ar
  29   17   18 ar
  30   17   32 1
  31   18   19 ar
  32   18   33 1
  33   19   20 ar
  34   20   21 ar
  35   20   23 1
  36   21   34 1
  37   22   35 1
  38   22   36 1
  39   22   37 1
  40   23   38 1
  41   23   39 1
  42   23   40 1

#	End of record

