#	Name: ASD00990037
#	Creating user name:	WinNT
#	Creation time:	15. 06. 2019 18:54

#	Modifying user name:	WinNT
#	Modification time:	15. 06. 2019 18:54

#	Program:	/corina/corina34_cracker 3.40 0067  02.08.2006

@<TRIPOS>MOLECULE
ASD00990037
  35   36    0    0    0
SMALL
NO_CHARGES


@<TRIPOS>ATOM
   1 C1            -0.0187     1.5298     0.0105 C.3     
   2 C2             0.0021    -0.0041     0.0020 C.3     
   3 C3             0.9682    -0.4756     1.0531 C.2     
   4 C4             1.8966     0.2605     1.6640 C.2     
   5 C5             2.0872     1.7377     1.3440 C.3     
   6 C6             1.4248     2.0421    -0.0006 C.3     
   7 S7             1.0983    -2.1046     1.7217 S.3     
   8 C8             2.3933    -1.7152     2.7881 C.2     
   9 N9             2.6517    -0.4165     2.5900 N.am    
  10 C10            3.7109     0.2633     3.3399 C.3     
  11 C11            5.0102     0.1550     2.5841 C.2     
  12 N12            6.1305     0.7107     3.0868 N.am    
  13 O13            5.0478    -0.4321     1.5236 O.2     
  14 O14            2.9579    -2.4667     3.5631 O.2     
  15 C15            7.3936     0.6055     2.3521 C.3     
  16 C16            6.0851     1.4200     4.3678 C.3     
  17 C17            7.5314     1.7809     1.4190 C.2     
  18 O18            8.6182     1.8952     0.6396 O.3     
  19 O19            6.6636     2.6203     1.3725 O.2     
  20 H20           -0.5422     1.8930    -0.8739 H       
  21 H21           -0.5252     1.8835     0.9085 H       
  22 H22           -0.9949    -0.3849     0.2239 H       
  23 H23            0.3234    -0.3604    -0.9767 H       
  24 H24            1.6247     2.3429     2.1238 H       
  25 H25            3.1518     1.9645     1.2865 H       
  26 H26            1.9790     1.5478    -0.7985 H       
  27 H27            1.4267     3.1188    -0.1707 H       
  28 H28            3.4501     1.3141     3.4655 H       
  29 H29            3.8200    -0.2035     4.3188 H       
  30 H30            8.2248     0.6019     3.0572 H       
  31 H31            7.4024    -0.3193     1.7752 H       
  32 H32            6.2874     0.7197     5.1782 H       
  33 H33            6.8372     2.2089     4.3732 H       
  34 H34            5.0970     1.8590     4.5053 H       
  35 H35            8.6619     2.6662     0.0576 H       
@<TRIPOS>BOND
   1    1    2 1
   2    1    6 1
   3    1   20 1
   4    1   21 1
   5    2    3 1
   6    2   22 1
   7    2   23 1
   8    3    4 2
   9    3    7 1
  10    4    5 1
  11    4    9 1
  12    5    6 1
  13    5   24 1
  14    5   25 1
  15    6   26 1
  16    6   27 1
  17    7    8 1
  18    8    9 am
  19    8   14 2
  20    9   10 1
  21   10   11 1
  22   10   28 1
  23   10   29 1
  24   11   12 am
  25   11   13 2
  26   12   15 1
  27   12   16 1
  28   15   17 1
  29   15   30 1
  30   15   31 1
  31   16   32 1
  32   16   33 1
  33   16   34 1
  34   17   18 1
  35   17   19 2
  36   18   35 1

#	End of record

