#	Name: ASD01915471
#	Creating user name:	WinNT
#	Creation time:	15. 06. 2019 20:05

#	Modifying user name:	WinNT
#	Modification time:	15. 06. 2019 20:05

#	Program:	/corina/corina34_cracker 3.40 0067  02.08.2006

@<TRIPOS>MOLECULE
ASD01915471
  42   45    0    0    0
SMALL
NO_CHARGES


@<TRIPOS>ATOM
   1 C1            -0.0167     1.3780     0.0096 C.ar    
   2 C2             0.0021    -0.0041     0.0020 C.ar    
   3 C3             1.2080    -0.6794    -0.0131 C.ar    
   4 C4             2.3969     0.0266    -0.0202 C.ar    
   5 C5             2.3806     1.4083    -0.0122 C.ar    
   6 C6             1.1730     2.0859     0.0021 C.ar    
   7 F7             1.1559     3.4368     0.0095 F       
   8 C8             3.7109    -0.7111    -0.0362 C.3     
   9 O9             4.1138    -0.9370    -1.3885 O.3     
  10 C10            5.2835    -1.5937    -1.5803 C.ar    
  11 C11            5.7237    -1.8405    -2.8768 C.ar    
  12 N12            5.9899    -1.9843    -0.5300 N.ar    
  13 C13            7.1322    -2.6245    -0.6645 C.ar    
  14 C14            7.6257    -2.9261    -1.9353 C.ar    
  15 C15            6.9129    -2.5176    -3.0671 C.ar    
  16 C16            7.9344    -3.0219     0.5483 C.3     
  17 C17            8.6643    -4.3365     0.2859 C.3     
  18 N18            9.4056    -4.2823    -0.9721 N.am    
  19 C19            8.8843    -3.6836    -2.0602 C.2     
  20 O20            9.4458    -3.7679    -3.1353 O.2     
  21 C21           10.6727    -4.8593    -1.0473 C.ar    
  22 N22           11.3883    -4.7266    -2.1524 N.ar    
  23 C23           12.5917    -5.2559    -2.2659 C.ar    
  24 C24           13.1509    -5.9736    -1.2247 C.ar    
  25 C25           12.4306    -6.1354    -0.0468 C.ar    
  26 C26           11.1740    -5.5634     0.0418 C.ar    
  27 F27           14.3836    -6.5121    -1.3509 F       
  28 H28           -0.9591     1.9054     0.0169 H       
  29 H29           -0.9259    -0.5565     0.0083 H       
  30 H30            1.2217    -1.7592    -0.0191 H       
  31 H31            3.3093     1.9595    -0.0170 H       
  32 H32            4.4681    -0.1157     0.4739 H       
  33 H33            3.5967    -1.6678     0.4735 H       
  34 H34            5.1428    -1.5073    -3.7241 H       
  35 H35            7.2791    -2.7292    -4.0609 H       
  36 H36            8.6628    -2.2422     0.7712 H       
  37 H37            7.2655    -3.1435     1.4002 H       
  38 H38            9.3594    -4.5292     1.1030 H       
  39 H39            7.9365    -5.1465     0.2378 H       
  40 H40           13.1465    -5.1272    -3.1835 H       
  41 H41           12.8440    -6.6917     0.7815 H       
  42 H42           10.5869    -5.6694     0.9421 H       
@<TRIPOS>BOND
   1    1    2 ar
   2    1    6 ar
   3    1   28 1
   4    2    3 ar
   5    2   29 1
   6    3    4 ar
   7    3   30 1
   8    4    5 ar
   9    4    8 1
  10    5    6 ar
  11    5   31 1
  12    6    7 1
  13    8    9 1
  14    8   32 1
  15    8   33 1
  16    9   10 1
  17   10   11 ar
  18   10   12 ar
  19   11   15 ar
  20   11   34 1
  21   12   13 ar
  22   13   14 ar
  23   13   16 1
  24   14   15 ar
  25   14   19 1
  26   15   35 1
  27   16   17 1
  28   16   36 1
  29   16   37 1
  30   17   18 1
  31   17   38 1
  32   17   39 1
  33   18   19 am
  34   18   21 1
  35   19   20 2
  36   21   22 ar
  37   21   26 ar
  38   22   23 ar
  39   23   24 ar
  40   23   40 1
  41   24   25 ar
  42   24   27 1
  43   25   26 ar
  44   25   41 1
  45   26   42 1

#	End of record

