#	Name: ASD01908094
#	Creating user name:	WinNT
#	Creation time:	15. 06. 2019 19:54

#	Modifying user name:	WinNT
#	Modification time:	15. 06. 2019 19:54

#	Program:	/corina/corina34_cracker 3.40 0067  02.08.2006

@<TRIPOS>MOLECULE
ASD01908094
  34   35    0    0    0
SMALL
NO_CHARGES


@<TRIPOS>ATOM
   1 C1            -0.0184     1.5028     0.0103 C.2     
   2 C2             0.0021    -0.0041     0.0020 C.3     
   3 N3             3.3827     2.7438    -0.0142 N.pl3   
   4 N4             2.6561     3.9393    -0.0014 N.2     
   5 C5             1.3823     3.6619     0.0085 C.2     
   6 C6             1.2417     2.2533     0.0023 C.2     
   7 C7             2.5185     1.7180    -0.0119 C.2     
   8 C8             0.2572     4.6644     0.0239 C.3     
   9 F9             0.7822     5.9562    -0.0895 F       
  10 F10           -0.6042     4.4152    -1.0499 F       
  11 F11           -0.4507     4.5525     1.2253 F       
  12 C12            4.8433     2.6312    -0.0334 C.3     
  13 C13            5.3918     3.4090    -1.2018 C.ar    
  14 C14            5.7273     4.7414    -1.0475 C.ar    
  15 C15            6.2303     5.4566    -2.1170 C.ar    
  16 C16            6.3987     4.8368    -3.3467 C.ar    
  17 C17            6.0613     3.4997    -3.4990 C.ar    
  18 C18            5.5640     2.7874    -2.4248 C.ar    
  19 O19            6.8929     5.5383    -4.4005 O.3     
  20 C20            7.0395     4.8357    -5.6362 C.3     
  21 Br21          -1.8423    -0.6846     0.0160 Br      
  22 O22           -1.0771     2.0950     0.0185 O.2     
  23 H23            0.5123    -0.3556    -0.8948 H       
  24 H24            0.5293    -0.3651     0.8851 H       
  25 H25            2.7719     0.6682    -0.0201 H       
  26 H26            5.2509     3.0332     0.8942 H       
  27 H27            5.1256     1.5828    -0.1301 H       
  28 H28            5.5957     5.2235    -0.0901 H       
  29 H29            6.4919     6.4974    -1.9961 H       
  30 H30            6.1914     3.0150    -4.4553 H       
  31 H31            5.3056     1.7453    -2.5416 H       
  32 H32            7.4425     5.5098    -6.3919 H       
  33 H33            7.7205     3.9959    -5.4981 H       
  34 H34            6.0672     4.4652    -5.9611 H       
@<TRIPOS>BOND
   1    1    2 1
   2    1    6 1
   3    1   22 2
   4    2   21 1
   5    2   23 1
   6    2   24 1
   7    3    4 1
   8    3    7 1
   9    3   12 1
  10    4    5 2
  11    5    6 1
  12    5    8 1
  13    6    7 2
  14    7   25 1
  15    8    9 1
  16    8   10 1
  17    8   11 1
  18   12   13 1
  19   12   26 1
  20   12   27 1
  21   13   14 ar
  22   13   18 ar
  23   14   15 ar
  24   14   28 1
  25   15   16 ar
  26   15   29 1
  27   16   17 ar
  28   16   19 1
  29   17   18 ar
  30   17   30 1
  31   18   31 1
  32   19   20 1
  33   20   32 1
  34   20   33 1
  35   20   34 1

#	End of record

