#	Name: ASD05730110
#	Creating user name:	WinNT
#	Creation time:	15. 06. 2019 21:02

#	Modifying user name:	WinNT
#	Modification time:	15. 06. 2019 21:02

#	Program:	/corina/corina34_cracker 3.40 0067  02.08.2006

@<TRIPOS>MOLECULE
ASD05730110
  82   87    0    0    0
SMALL
NO_CHARGES


@<TRIPOS>ATOM
   1 O1             0.3001     1.6854     0.8541 O.3     
   2 C2             0.2861     0.3316     0.7269 C.ar    
   3 C3            -0.6968    -0.2830    -0.0348 C.ar    
   4 C4            -0.7114    -1.6577    -0.1648 C.ar    
   5 C5             0.2583    -2.4249     0.4672 C.ar    
   6 C6             1.2420    -1.8088     1.2296 C.ar    
   7 C7             1.2583    -0.4336     1.3543 C.ar    
   8 N8             0.2440    -3.8189     0.3362 N.pl3   
   9 C9             1.4312    -4.5122     0.2020 C.ar    
  10 N10            1.3990    -5.8361     0.1920 N.ar    
  11 C11            2.5198    -6.5373     0.0648 C.ar    
  12 C12            3.7432    -5.8437    -0.0593 C.ar    
  13 C13            3.7241    -4.4409    -0.0429 C.ar    
  14 N14            2.5627    -3.8264     0.0823 N.ar    
  15 N15            2.4959    -7.9092     0.0539 N.am    
  16 C16            3.6357    -8.6153    -0.0746 C.2     
  17 C17            4.9216    -7.9268    -0.2054 C.2     
  18 C18            4.9552    -6.5580    -0.1969 C.2     
  19 C19            1.2177    -8.6131     0.1837 C.3     
  20 C20            0.6282    -8.8405    -1.1845 C.2     
  21 O21            3.5967    -9.8327    -0.0815 O.2     
  22 C22            6.1748    -8.7043    -0.3466 C.ar    
  23 C23            6.6424    -9.0558    -1.6135 C.ar    
  24 C24            6.8957    -9.0835     0.7864 C.ar    
  25 C25            8.0631    -9.8083     0.6478 C.ar    
  26 C26            8.5181   -10.1584    -0.6108 C.ar    
  27 C27            7.8113    -9.7808    -1.7383 C.ar    
  28 S28           10.0085   -11.0832    -0.7787 S.o     
  29 C29            9.4297   -12.8018    -0.7332 C.3     
  30 O30           10.4370   -10.7625    -2.0951 O.2     
  31 C31           10.6336   -13.7459    -0.7443 C.3     
  32 C32            8.6132   -13.0314     0.5402 C.3     
  33 Cl33           5.7565    -8.5833    -3.0297 Cl      
  34 Cl34           6.3266    -8.6446     2.3667 Cl      
  35 N35           -0.5541    -9.4748    -1.3119 N.am    
  36 O36            1.2178    -8.4529    -2.1709 O.2     
  37 C37           -1.2403    -9.7617    -2.5801 C.3     
  38 C38           -2.5641   -10.4751    -2.2337 C.3     
  39 C39           -2.8161   -10.0456    -0.7642 C.3     
  40 C40           -1.3705   -10.0015    -0.2031 C.3     
  41 C41           -0.6624     2.4184     0.0936 C.3     
  42 C42           -2.0067     2.4724     0.8428 C.3     
  43 N43           -2.2870     3.8962     1.1290 N.3     
  44 C44           -1.5546     4.6692     0.0935 C.3     
  45 C45           -0.2214     3.8930    -0.0514 C.3     
  46 C46           -3.7289     4.1712     1.0695 C.3     
  47 H47           -1.4511     0.3138    -0.5260 H       
  48 H48           -1.4770    -2.1361    -0.7576 H       
  49 H49            1.9965    -2.4048     1.7215 H       
  50 H50            2.0235     0.0457     1.9469 H       
  51 H51           -0.5996    -4.2977     0.3398 H       
  52 H52            4.6398    -3.8759    -0.1349 H       
  53 H53            5.8937    -6.0321    -0.2920 H       
  54 H54            1.3797    -9.5731     0.6737 H       
  55 H55            0.5309    -8.0122     0.7798 H       
  56 H56            8.6222   -10.1021     1.5238 H       
  57 H57            8.1719   -10.0573    -2.7180 H       
  58 H58            8.8058   -12.9983    -1.6051 H       
  59 H59           11.2575   -13.5494     0.1276 H       
  60 H60           10.2858   -14.7785    -0.7170 H       
  61 H61           11.2152   -13.5823    -1.6516 H       
  62 H62            7.7555   -12.3588     0.5482 H       
  63 H63            8.2654   -14.0640     0.5676 H       
  64 H64            9.2371   -12.8349     1.4122 H       
  65 H65           -1.4479    -8.8309    -3.1081 H       
  66 H66           -0.6202   -10.4107    -3.1985 H       
  67 H67           -3.3699   -10.1281    -2.8805 H       
  68 H68           -2.4495   -11.5567    -2.3051 H       
  69 H69           -3.2863    -9.0633    -0.7194 H       
  70 H70           -3.4153   -10.7882    -0.2374 H       
  71 H71           -1.0410   -11.0024     0.0755 H       
  72 H72           -1.3168    -9.3311     0.6547 H       
  73 H73           -0.7943     1.9632    -0.8879 H       
  74 H74           -2.7971     2.0567     0.2178 H       
  75 H75           -1.9347     1.9134     1.7757 H       
  76 H76           -2.1043     4.6685    -0.8477 H       
  77 H77           -1.3712     5.6888     0.4325 H       
  78 H78            0.4731     4.1678     0.7425 H       
  79 H79            0.2224     4.0683    -1.0314 H       
  80 H80           -4.2464     3.5579     1.8071 H       
  81 H81           -3.9069     5.2250     1.2837 H       
  82 H82           -4.1031     3.9346     0.0734 H       
@<TRIPOS>BOND
   1    1    2 1
   2    1   41 1
   3    2    3 ar
   4    2    7 ar
   5    3    4 ar
   6    3   47 1
   7    4    5 ar
   8    4   48 1
   9    5    6 ar
  10    5    8 1
  11    6    7 ar
  12    6   49 1
  13    7   50 1
  14    8    9 1
  15    8   51 1
  16    9   10 ar
  17    9   14 ar
  18   10   11 ar
  19   11   12 ar
  20   11   15 1
  21   12   13 ar
  22   12   18 1
  23   13   14 ar
  24   13   52 1
  25   15   16 am
  26   15   19 1
  27   16   17 1
  28   16   21 2
  29   17   18 2
  30   17   22 1
  31   18   53 1
  32   19   20 1
  33   19   54 1
  34   19   55 1
  35   20   35 am
  36   20   36 2
  37   22   24 ar
  38   22   23 ar
  39   23   33 1
  40   23   27 ar
  41   24   25 ar
  42   24   34 1
  43   25   26 ar
  44   25   56 1
  45   26   27 ar
  46   26   28 1
  47   27   57 1
  48   28   29 1
  49   28   30 2
  50   29   31 1
  51   29   32 1
  52   29   58 1
  53   31   59 1
  54   31   60 1
  55   31   61 1
  56   32   62 1
  57   32   63 1
  58   32   64 1
  59   35   37 1
  60   35   40 1
  61   37   38 1
  62   37   65 1
  63   37   66 1
  64   38   39 1
  65   38   67 1
  66   38   68 1
  67   39   40 1
  68   39   69 1
  69   39   70 1
  70   40   71 1
  71   40   72 1
  72   41   42 1
  73   41   45 1
  74   41   73 1
  75   42   43 1
  76   42   74 1
  77   42   75 1
  78   43   44 1
  79   43   46 1
  80   44   45 1
  81   44   76 1
  82   44   77 1
  83   45   78 1
  84   45   79 1
  85   46   80 1
  86   46   81 1
  87   46   82 1

#	End of record

