#	Name: ASD01918438
#	Creating user name:	WinNT
#	Creation time:	15. 06. 2019 20:11

#	Modifying user name:	WinNT
#	Modification time:	15. 06. 2019 20:11

#	Program:	/corina/corina34_cracker 3.40 0067  02.08.2006

@<TRIPOS>MOLECULE
ASD01918438
  52   56    0    0    0
SMALL
NO_CHARGES


@<TRIPOS>ATOM
   1 C1            -0.4986     1.5071    -0.1645 C.3     
   2 C2            -0.3896     0.0041    -0.1495 C.2     
   3 N3            -0.4586    -0.7479    -1.1878 N.2     
   4 C4            -0.3428    -2.0655    -1.0101 C.2     
   5 C5            -0.3536    -3.3255    -1.8609 C.3     
   6 N6            -0.1655    -4.4685    -0.9648 N.am    
   7 C7            -0.0450    -3.9135     0.3864 C.3     
   8 C8            -0.1664    -2.4119     0.2692 C.2     
   9 S9            -0.1491    -0.9443     1.2502 S.3     
  10 C10           -0.1143    -5.7696    -1.3127 C.2     
  11 O11           -0.2300    -6.0912    -2.4764 O.2     
  12 C12            0.0866    -6.8248    -0.2557 C.3     
  13 N13            0.1060    -8.1480    -0.8842 N.pl3   
  14 C14           -0.9675    -8.9750    -1.0669 C.2     
  15 C15           -0.5041   -10.0939    -1.6858 C.2     
  16 N16            0.8203    -9.9485    -1.8740 N.2     
  17 C17            1.1978    -8.7826    -1.4018 C.2     
  18 C18            2.5765    -8.2480    -1.4243 C.ar    
  19 C19            2.8002    -6.8809    -1.2552 C.ar    
  20 C20            4.0879    -6.3875    -1.2765 C.ar    
  21 C21            5.1587    -7.2467    -1.4660 C.ar    
  22 F22            6.4182    -6.7583    -1.4861 F       
  23 C23            4.9420    -8.6051    -1.6344 C.ar    
  24 C24            3.6587    -9.1096    -1.6090 C.ar    
  25 C25           -1.3171   -11.2698    -2.0835 C.ar    
  26 C26           -2.6875   -11.2890    -1.8327 C.ar    
  27 C27           -3.4397   -12.3848    -2.2043 C.ar    
  28 C28           -2.8341   -13.4647    -2.8254 C.ar    
  29 F29           -3.5742   -14.5354    -3.1875 F       
  30 C30           -1.4715   -13.4499    -3.0768 C.ar    
  31 C31           -0.8184   -14.6276    -3.7532 C.3     
  32 C32           -0.7130   -12.3560    -2.7143 C.ar    
  33 H33            0.4925     1.9420    -0.2938 H       
  34 H34           -1.1415     1.8165    -0.9886 H       
  35 H35           -0.9257     1.8498     0.7779 H       
  36 H36           -1.3092    -3.4143    -2.3776 H       
  37 H37            0.4583    -3.2878    -2.5872 H       
  38 H38           -0.8435    -4.3014     1.0189 H       
  39 H39            0.9251    -4.1749     0.8092 H       
  40 H40            1.0337    -6.6515     0.2554 H       
  41 H41           -0.7294    -6.7770     0.4653 H       
  42 H42           -1.9884    -8.7775    -0.7752 H       
  43 H43            1.9664    -6.2104    -1.1081 H       
  44 H44            4.2621    -5.3297    -1.1457 H       
  45 H45            5.7799    -9.2704    -1.7817 H       
  46 H46            3.4912   -10.1689    -1.7359 H       
  47 H47           -3.1603   -10.4477    -1.3479 H       
  48 H48           -4.5020   -12.4005    -2.0102 H       
  49 H49           -0.8348   -14.4812    -4.8332 H       
  50 H50            0.2137   -14.7149    -3.4140 H       
  51 H51           -1.3619   -15.5384    -3.5017 H       
  52 H52            0.3482   -12.3434    -2.9146 H       
@<TRIPOS>BOND
   1    1    2 1
   2    1   33 1
   3    1   34 1
   4    1   35 1
   5    2    9 1
   6    2    3 2
   7    3    4 1
   8    4    8 2
   9    4    5 1
  10    5    6 1
  11    5   36 1
  12    5   37 1
  13    6    7 1
  14    6   10 am
  15    7    8 1
  16    7   38 1
  17    7   39 1
  18    8    9 1
  19   10   11 2
  20   10   12 1
  21   12   13 1
  22   12   40 1
  23   12   41 1
  24   13   17 1
  25   13   14 1
  26   14   15 2
  27   14   42 1
  28   15   16 1
  29   15   25 1
  30   16   17 2
  31   17   18 1
  32   18   24 ar
  33   18   19 ar
  34   19   20 ar
  35   19   43 1
  36   20   21 ar
  37   20   44 1
  38   21   22 1
  39   21   23 ar
  40   23   24 ar
  41   23   45 1
  42   24   46 1
  43   25   32 ar
  44   25   26 ar
  45   26   27 ar
  46   26   47 1
  47   27   28 ar
  48   27   48 1
  49   28   29 1
  50   28   30 ar
  51   30   31 1
  52   30   32 ar
  53   31   49 1
  54   31   50 1
  55   31   51 1
  56   32   52 1

#	End of record

