#	Name: ASD01912366
#	Creating user name:	WinNT
#	Creation time:	15. 06. 2019 19:59

#	Modifying user name:	WinNT
#	Modification time:	15. 06. 2019 19:59

#	Program:	/corina/corina34_cracker 3.40 0067  02.08.2006

@<TRIPOS>MOLECULE
ASD01912366
  50   53    0    0    0
SMALL
NO_CHARGES


@<TRIPOS>ATOM
   1 C1             0.0323     1.4154     0.4390 C.ar    
   2 C2             0.0521     0.0326     0.4735 C.ar    
   3 C3             1.2694    -0.6337     0.4338 C.ar    
   4 C4             2.4304     0.1145     0.3605 C.ar    
   5 C5             2.3381     1.5086     0.3291 C.ar    
   6 N6             1.1507     2.1069     0.3691 N.ar    
   7 C7             3.5301     2.2986     0.2532 C.1     
   8 C8             4.5073     2.9462     0.1911 C.1     
   9 C9             5.6993     3.7361     0.1152 C.2     
  10 N10            5.4086     7.5491    -1.0812 N.am    
  11 C11            6.7153     6.8856    -1.1758 C.3     
  12 C12            6.8642     5.9178     0.0050 C.3     
  13 C13            5.6167     5.0655     0.0850 C.2     
  14 C14            4.2731     5.7596     0.1305 C.3     
  15 C15            4.1891     6.7313    -1.0535 C.3     
  16 C16            5.3297     8.8930    -1.0150 C.2     
  17 O17            6.3426     9.5569    -0.9184 O.2     
  18 O18            1.9424     9.7961    -1.2607 O.3     
  19 N19            2.8464     8.9941    -1.2864 N.2     
  20 C20            4.0062     9.5614    -1.0600 C.2     
  21 C21            3.7433    10.9425    -0.8660 C.2     
  22 C22            2.3869    11.0396    -1.0072 C.2     
  23 C23            1.5709    12.2680    -0.9021 C.ar    
  24 C24            0.1870    12.2067    -1.0717 C.ar    
  25 C25           -0.5688    13.3566    -0.9719 C.ar    
  26 C26            0.0424    14.5687    -0.7047 C.ar    
  27 C27            1.4139    14.6364    -0.5355 C.ar    
  28 C28            2.1805    13.4930    -0.6271 C.ar    
  29 C29           -1.2883     2.1405     0.4757 C.3     
  30 H30           -0.8717    -0.5240     0.5312 H       
  31 H31            1.3090    -1.7127     0.4599 H       
  32 H32            3.3943    -0.3716     0.3283 H       
  33 H33            6.6653     3.2542     0.0825 H       
  34 H34            6.7767     6.3314    -2.1124 H       
  35 H35            7.5081     7.6327    -1.1382 H       
  36 H36            7.7347     5.2805    -0.1504 H       
  37 H37            6.9827     6.4826     0.9297 H       
  38 H38            3.4755     5.0204     0.0558 H       
  39 H39            4.1765     6.3112     1.0656 H       
  40 H40            3.3188     7.3768    -0.9354 H       
  41 H41            4.1055     6.1683    -1.9831 H       
  42 H42            4.4495    11.7321    -0.6560 H       
  43 H43           -0.2913    11.2612    -1.2810 H       
  44 H44           -1.6398    13.3105    -1.1029 H       
  45 H45           -0.5537    15.4661    -0.6282 H       
  46 H46            1.8850    15.5857    -0.3275 H       
  47 H47            3.2505    13.5464    -0.4907 H       
  48 H48           -1.5638     2.3415     1.5110 H       
  49 H49           -1.2010     3.0820    -0.0664 H       
  50 H50           -2.0553     1.5223     0.0091 H       
@<TRIPOS>BOND
   1    1    2 ar
   2    1    6 ar
   3    1   29 1
   4    2    3 ar
   5    2   30 1
   6    3    4 ar
   7    3   31 1
   8    4    5 ar
   9    4   32 1
  10    5    6 ar
  11    5    7 1
  12    7    8 3
  13    8    9 1
  14    9   13 2
  15    9   33 1
  16   10   11 1
  17   10   15 1
  18   10   16 am
  19   11   12 1
  20   11   34 1
  21   11   35 1
  22   12   13 1
  23   12   36 1
  24   12   37 1
  25   13   14 1
  26   14   15 1
  27   14   38 1
  28   14   39 1
  29   15   40 1
  30   15   41 1
  31   16   17 2
  32   16   20 1
  33   18   19 1
  34   18   22 1
  35   19   20 2
  36   20   21 1
  37   21   22 2
  38   21   42 1
  39   22   23 1
  40   23   24 ar
  41   23   28 ar
  42   24   25 ar
  43   24   43 1
  44   25   26 ar
  45   25   44 1
  46   26   27 ar
  47   26   45 1
  48   27   28 ar
  49   27   46 1
  50   28   47 1
  51   29   48 1
  52   29   49 1
  53   29   50 1

#	End of record

