#	Name: ASD03082235
#	Creating user name:	WinNT
#	Creation time:	15. 06. 2019 20:27

#	Modifying user name:	WinNT
#	Modification time:	15. 06. 2019 20:27

#	Program:	/corina/corina34_cracker 3.40 0067  02.08.2006

@<TRIPOS>MOLECULE
ASD03082235
  47   50    0    0    0
SMALL
NO_CHARGES


@<TRIPOS>ATOM
   1 N1            -0.4404     1.1127    -0.0128 N.am    
   2 N2            -0.1612    -0.2637    -0.0153 N.2     
   3 C3             1.1447    -0.3907    -0.0198 C.2     
   4 N4             1.7065     0.8215    -0.0204 N.2     
   5 C5             0.7691     1.7469    -0.0162 C.2     
   6 N6             1.8372    -1.6005    -0.0228 N.pl3   
   7 C7             1.1386    -2.8066     0.0955 C.ar    
   8 C8             1.6832    -3.9787    -0.4136 C.ar    
   9 C9             0.9917    -5.1682    -0.2958 C.ar    
  10 C10           -0.2438    -5.1932     0.3295 C.ar    
  11 C11           -0.7885    -4.0262     0.8377 C.ar    
  12 C12           -0.0978    -2.8350     0.7271 C.ar    
  13 C13            1.5817    -6.4400    -0.8483 C.3     
  14 F14            2.8246    -6.1641    -1.4283 F       
  15 F15            1.7457    -7.3664     0.1871 F       
  16 F16            0.7227    -6.9703    -1.8168 F       
  17 N17            2.0484     5.1069     0.9100 N.ar    
  18 C18            1.8553     3.7996     0.9132 C.ar    
  19 C19            0.9870     3.2078    -0.0157 C.ar    
  20 C20            0.3317     4.0251    -0.9416 C.ar    
  21 C21            0.5702     5.3886    -0.8999 C.ar    
  22 C22            1.4403     5.8975     0.0459 C.ar    
  23 C23           -1.6576     1.6915    -0.0130 C.2     
  24 N24           -2.7651     0.9316    -0.1248 N.am    
  25 F25           -0.9187    -6.3579     0.4433 F       
  26 C26           -4.0881     1.5607    -0.1250 C.3     
  27 O27           -1.7565     2.8984     0.0877 O.2     
  28 C28           -5.2755     0.7088     0.3281 C.3     
  29 C29           -5.1075     1.0618    -1.1511 C.3     
  30 O30            2.5011     3.0257     1.8192 O.3     
  31 C31            3.3720     3.6904     2.7367 C.3     
  32 H32            2.8035    -1.6060    -0.1069 H       
  33 H33            2.6464    -3.9597    -0.9016 H       
  34 H34           -1.7522    -4.0479     1.3246 H       
  35 H35           -0.5209    -1.9258     1.1279 H       
  36 H36           -0.3436     3.6036    -1.6714 H       
  37 H37            0.0809     6.0487    -1.6007 H       
  38 H38            1.6264     6.9609     0.0778 H       
  39 H39           -2.6861    -0.0319    -0.2052 H       
  40 H40           -4.1045     2.6211     0.1266 H       
  41 H41           -5.0723    -0.3198     0.6263 H       
  42 H42           -6.0732     1.2088     0.8774 H       
  43 H43           -5.7946     1.7941    -1.5750 H       
  44 H44           -4.7937     0.2655    -1.8261 H       
  45 H45            4.1549     4.2091     2.1836 H       
  46 H46            2.8013     4.4118     3.3216 H       
  47 H47            3.8238     2.9573     3.4049 H       
@<TRIPOS>BOND
   1    1    2 1
   2    1    5 1
   3    1   23 am
   4    2    3 2
   5    3    4 1
   6    3    6 1
   7    4    5 2
   8    5   19 1
   9    6    7 1
  10    6   32 1
  11    7    8 ar
  12    7   12 ar
  13    8    9 ar
  14    8   33 1
  15    9   10 ar
  16    9   13 1
  17   10   11 ar
  18   10   25 1
  19   11   12 ar
  20   11   34 1
  21   12   35 1
  22   13   14 1
  23   13   15 1
  24   13   16 1
  25   17   18 ar
  26   17   22 ar
  27   18   19 ar
  28   18   30 1
  29   19   20 ar
  30   20   21 ar
  31   20   36 1
  32   21   22 ar
  33   21   37 1
  34   22   38 1
  35   23   24 am
  36   23   27 2
  37   24   26 1
  38   24   39 1
  39   26   28 1
  40   26   29 1
  41   26   40 1
  42   28   29 1
  43   28   41 1
  44   28   42 1
  45   29   43 1
  46   29   44 1
  47   30   31 1
  48   31   45 1
  49   31   46 1
  50   31   47 1

#	End of record

