#	Name: ASD03240699
#	Creating user name:	WinNT
#	Creation time:	15. 06. 2019 20:35

#	Modifying user name:	WinNT
#	Modification time:	15. 06. 2019 20:35

#	Program:	/corina/corina34_cracker 3.40 0067  02.08.2006

@<TRIPOS>MOLECULE
ASD03240699
  75   82    0    0    0
SMALL
NO_CHARGES


@<TRIPOS>ATOM
   1 C1            -0.0162     1.3406     0.0094 C.2     
   2 N2             0.0021    -0.0041     0.0020 N.2     
   3 C3             1.1202    -0.6827    -0.0123 C.2     
   4 C4             2.3899     0.0407    -0.0205 C.ar    
   5 C5             2.3641     1.4519    -0.0127 C.ar    
   6 N6             1.1344     2.0817     0.0024 N.pl3   
   7 C7             3.6179    -0.6286    -0.0353 C.ar    
   8 C8             4.7783     0.1389    -0.0418 C.ar    
   9 C9             4.6723     1.5432    -0.0333 C.ar    
  10 N10            3.4908     2.1422    -0.0193 N.ar    
  11 N11            0.7735     3.4345     0.0131 N.2     
  12 C12           -0.5349     3.5228     0.0261 C.2     
  13 C13           -1.0721     2.2417     0.0301 C.2     
  14 C14            5.9041     2.3651    -0.0397 C.ar    
  15 C15            5.9320     3.5796    -0.7254 C.ar    
  16 C16            7.0827     4.3409    -0.7277 C.ar    
  17 C17            8.2073     3.9021    -0.0517 C.ar    
  18 C18            8.1858     2.6985     0.6302 C.ar    
  19 C19            7.0393     1.9309     0.6447 C.ar    
  20 C20            9.4610     4.7383    -0.0587 C.3     
  21 N21            9.4377     5.6651     1.0808 N.3     
  22 C22           10.7376     6.3277     1.2469 C.3     
  23 C23           10.7222     7.1714     2.5236 C.3     
  24 C24            9.6054     8.2144     2.4268 C.3     
  25 C25            8.2689     7.5006     2.2057 C.3     
  26 C26            8.3554     6.6473     0.9382 C.3     
  27 N27            9.8703    10.5571     5.1234 N.2     
  28 N28           10.1272    10.1584     3.9284 N.2     
  29 C29            9.5463     9.0092     3.7058 C.2     
  30 N30            8.8813     8.6626     4.8331 N.pl3   
  31 C31            9.1063     9.6741     5.7274 C.2     
  32 C32            8.5882     9.7579     7.1104 C.ar    
  33 C33            8.9072    10.8603     7.9033 C.ar    
  34 C34            8.4145    10.9243     9.1948 C.ar    
  35 C35            7.6182     9.8838     9.6528 C.ar    
  36 C36            7.3415     8.8205     8.8128 C.ar    
  37 N37            7.8186     8.7857     7.5856 N.ar    
  38 C38            6.1096    -0.5133    -0.0570 C.ar    
  39 C39            6.4052    -1.5217     0.8589 C.ar    
  40 C40            7.6459    -2.1255     0.8397 C.ar    
  41 C41            8.5955    -1.7319    -0.0860 C.ar    
  42 C42            8.3078    -0.7318    -0.9973 C.ar    
  43 C43            7.0686    -0.1245    -0.9910 C.ar    
  44 C44           -1.3265     4.8050     0.0405 C.3     
  45 H45            1.1053    -1.7626    -0.0176 H       
  46 H46            3.6639    -1.7076    -0.0412 H       
  47 H47           -2.1226     1.9916     0.0445 H       
  48 H48            5.0549     3.9230    -1.2537 H       
  49 H49            7.1058     5.2812    -1.2585 H       
  50 H50            9.0668     2.3612     1.1560 H       
  51 H51            7.0222     0.9939     1.1814 H       
  52 H52           10.3320     4.0878     0.0198 H       
  53 H53            9.5139     5.3059    -0.9877 H       
  54 H54           11.5225     5.5747     1.3186 H       
  55 H55           10.9295     6.9714     0.3884 H       
  56 H56           10.5441     6.5263     3.3839 H       
  57 H57           11.6819     7.6754     2.6383 H       
  58 H58            9.8037     8.8838     1.5897 H       
  59 H59            8.0522     6.8607     3.0610 H       
  60 H60            7.4758     8.2398     2.0933 H       
  61 H61            8.5584     7.2896     0.0812 H       
  62 H62            7.4101     6.1266     0.7857 H       
  63 H63            8.3537     7.8615     4.9774 H       
  64 H64            9.5301    11.6525     7.5149 H       
  65 H65            8.6447    11.7651     9.8324 H       
  66 H66            7.2188     9.9041    10.6559 H       
  67 H67            6.7222     8.0095     9.1666 H       
  68 H68            5.6647    -1.8296     1.5823 H       
  69 H69            7.8762    -2.9067     1.5491 H       
  70 H70            9.5653    -2.2071    -0.0971 H       
  71 H71            9.0531    -0.4283    -1.7176 H       
  72 H72            6.8436     0.6534    -1.7057 H       
  73 H73           -1.5276     5.1194    -0.9837 H       
  74 H74           -2.2695     4.6440     0.5629 H       
  75 H75           -0.7550     5.5791     0.5526 H       
@<TRIPOS>BOND
   1    1    2 1
   2    1    6 1
   3    1   13 2
   4    2    3 2
   5    3    4 1
   6    3   45 1
   7    4    5 ar
   8    4    7 ar
   9    5    6 1
  10    5   10 ar
  11    6   11 1
  12    7    8 ar
  13    7   46 1
  14    8    9 ar
  15    8   38 1
  16    9   10 ar
  17    9   14 1
  18   11   12 2
  19   12   13 1
  20   12   44 1
  21   13   47 1
  22   14   15 ar
  23   14   19 ar
  24   15   16 ar
  25   15   48 1
  26   16   17 ar
  27   16   49 1
  28   17   18 ar
  29   17   20 1
  30   18   19 ar
  31   18   50 1
  32   19   51 1
  33   20   21 1
  34   20   52 1
  35   20   53 1
  36   21   22 1
  37   21   26 1
  38   22   23 1
  39   22   54 1
  40   22   55 1
  41   23   24 1
  42   23   56 1
  43   23   57 1
  44   24   25 1
  45   24   29 1
  46   24   58 1
  47   25   26 1
  48   25   59 1
  49   25   60 1
  50   26   61 1
  51   26   62 1
  52   27   28 1
  53   27   31 2
  54   28   29 2
  55   29   30 1
  56   30   31 1
  57   30   63 1
  58   31   32 1
  59   32   33 ar
  60   32   37 ar
  61   33   34 ar
  62   33   64 1
  63   34   35 ar
  64   34   65 1
  65   35   36 ar
  66   35   66 1
  67   36   37 ar
  68   36   67 1
  69   38   39 ar
  70   38   43 ar
  71   39   40 ar
  72   39   68 1
  73   40   41 ar
  74   40   69 1
  75   41   42 ar
  76   41   70 1
  77   42   43 ar
  78   42   71 1
  79   43   72 1
  80   44   73 1
  81   44   74 1
  82   44   75 1

#	End of record

