#	Name: ASD00390005
#	Creating user name:	WinNT
#	Creation time:	15. 06. 2019 18:35

#	Modifying user name:	WinNT
#	Modification time:	15. 06. 2019 18:35

#	Program:	/corina/corina34_cracker 3.40 0067  02.08.2006

@<TRIPOS>MOLECULE
ASD00390005
  28   28    0    0    0
SMALL
NO_CHARGES


@<TRIPOS>ATOM
   1 C1            -0.0656     1.3971     0.2335 C.ar    
   2 C2            -0.0533     0.0720     0.4955 C.ar    
   3 C3            -1.2826    -0.7163     0.2698 C.ar    
   4 C4            -2.4830    -0.0192    -0.2362 C.ar    
   5 C5            -2.4194     1.3089    -0.4753 C.ar    
   6 C6            -1.2313     2.0281    -0.2427 C.ar    
   7 N7            -1.2055     3.3688    -0.4956 N.pl3   
   8 C8            -2.4362     4.0662    -0.8766 C.3     
   9 C9            -2.1334     5.5491    -1.1013 C.3     
  10 S10           -3.6573     6.4126    -1.5731 S.o2    
  11 N11           -1.3073    -1.9987     0.5116 N.2     
  12 O12           -4.0858     5.9991    -2.8633 O.2     
  13 O13           -4.5638     6.4578    -0.4797 O.2     
  14 O14           -3.2293     7.8604    -1.7659 O.3     
  15 N15           -2.2495    -2.5858     0.3353 N.1     
  16 N16           -3.1916    -3.1729     0.1591 N.pl3   
  17 N17            1.1596     2.1971     0.4556 N.pl3   
  18 O18            2.3401     1.6856     0.1742 O.2     
  19 O19            1.0693     3.4206     0.9347 O.2     
  20 H20            0.8427    -0.4048     0.8644 H       
  21 H21           -3.3987    -0.5640    -0.4129 H       
  22 H22           -3.2921     1.8264    -0.8457 H       
  23 H23           -0.3722     3.8601    -0.4231 H       
  24 H24           -2.8299     3.6325    -1.7958 H       
  25 H25           -3.1738     3.9625    -0.0808 H       
  26 H26           -1.7397     5.9828    -0.1821 H       
  27 H27           -1.3958     5.6528    -1.8971 H       
  28 H28           -3.9490     8.4523    -2.0241 H       
@<TRIPOS>BOND
   1    1    2 ar
   2    1   17 1
   3    1    6 ar
   4    2    3 ar
   5    2   20 1
   6    3    4 ar
   7    3   11 1
   8    4    5 ar
   9    4   21 1
  10    5    6 ar
  11    5   22 1
  12    6    7 1
  13    7    8 1
  14    7   23 1
  15    8    9 1
  16    8   24 1
  17    8   25 1
  18    9   10 1
  19    9   26 1
  20    9   27 1
  21   10   12 2
  22   10   13 2
  23   10   14 1
  24   11   15 2
  25   14   28 1
  26   15   16 2
  27   17   18 2
  28   17   19 2

#	End of record

