#	Name: ASD01916624
#	Creating user name:	WinNT
#	Creation time:	15. 06. 2019 20:07

#	Modifying user name:	WinNT
#	Modification time:	15. 06. 2019 20:07

#	Program:	/corina/corina34_cracker 3.40 0067  02.08.2006

@<TRIPOS>MOLECULE
ASD01916624
  31   32    0    0    0
SMALL
NO_CHARGES


@<TRIPOS>ATOM
   1 O1            -0.0144     1.2087     0.0087 O.3     
   2 N2             0.0021    -0.0041     0.0020 N.2     
   3 C3             1.2360    -0.4366    -0.0121 C.2     
   4 N4             2.0401     0.6504    -0.0139 N.2     
   5 C5             1.2351     1.6835    -0.0007 C.2     
   6 C6             1.6722    -1.8553    -0.0234 C.ar    
   7 C7             0.7257    -2.8779    -0.0199 C.ar    
   8 C8             1.1368    -4.1952    -0.0305 C.ar    
   9 C9             2.4858    -4.5013    -0.0440 C.ar    
  10 C10            3.4295    -3.4903    -0.0471 C.ar    
  11 C11            3.0293    -2.1692    -0.0434 C.ar    
  12 C12           -0.7442    -2.5460    -0.0042 C.3     
  13 C13           -1.2277    -2.3033    -1.4354 C.3     
  14 C14            1.6412     3.1347     0.0032 C.3     
  15 C15            1.7643     3.6338    -1.4379 C.3     
  16 C16            2.1610     5.0513    -1.4340 C.1     
  17 C17            2.4774     6.1819    -1.4310 C.1     
  18 H18            0.4040    -4.9886    -0.0278 H       
  19 H19            2.8032    -5.5336    -0.0519 H       
  20 H20            4.4814    -3.7348    -0.0570 H       
  21 H21            3.7670    -1.3804    -0.0507 H       
  22 H22           -1.2997    -3.3768     0.4310 H       
  23 H23           -0.9076    -1.6480     0.5917 H       
  24 H24           -1.0643    -3.2013    -2.0312 H       
  25 H25           -2.2908    -2.0632    -1.4240 H       
  26 H26           -0.6722    -1.4725    -1.8705 H       
  27 H27            0.8873     3.7216     0.5278 H       
  28 H28            2.6013     3.2420     0.5081 H       
  29 H29            2.5183     3.0469    -1.9625 H       
  30 H30            0.8043     3.5265    -1.9427 H       
  31 H31            2.7604     7.1930    -1.4283 H       
@<TRIPOS>BOND
   1    1    2 1
   2    1    5 1
   3    2    3 2
   4    3    4 1
   5    3    6 1
   6    4    5 2
   7    5   14 1
   8    6    7 ar
   9    6   11 ar
  10    7    8 ar
  11    7   12 1
  12    8    9 ar
  13    8   18 1
  14    9   10 ar
  15    9   19 1
  16   10   11 ar
  17   10   20 1
  18   11   21 1
  19   12   13 1
  20   12   22 1
  21   12   23 1
  22   13   24 1
  23   13   25 1
  24   13   26 1
  25   14   15 1
  26   14   27 1
  27   14   28 1
  28   15   16 1
  29   15   29 1
  30   15   30 1
  31   16   17 3
  32   17   31 1

#	End of record

