#	Name: ASD02500815
#	Creating user name:	WinNT
#	Creation time:	15. 06. 2019 20:23

#	Modifying user name:	WinNT
#	Modification time:	15. 06. 2019 20:23

#	Program:	/corina/corina34_cracker 3.40 0067  02.08.2006

@<TRIPOS>MOLECULE
ASD02500815
  41   44    0    0    0
SMALL
NO_CHARGES


@<TRIPOS>ATOM
   1 C1            -0.0169     1.3947     0.0097 C.2     
   2 C2             0.0021    -0.0041     0.0020 C.2     
   3 C3            -1.2257    -0.6947     0.0104 C.2     
   4 N4            -2.3820    -0.0049     0.0256 N.am    
   5 N5            -2.4038     1.3917     0.0328 N.2     
   6 C6            -1.3009     2.0876     0.0310 C.2     
   7 C7             1.3321     1.8349    -0.0008 C.2     
   8 C8             2.1403     0.7198    -0.0145 C.2     
   9 N9             1.3169    -0.4080    -0.0127 N.pl3   
  10 S10            2.3248     3.2891    -0.0025 S.3     
  11 C11            3.7975     2.3333    -0.0217 C.2     
  12 C12            3.5039     1.0305    -0.0252 C.2     
  13 O13           -1.2413    -1.9156     0.0036 O.2     
  14 C14           -3.6502    -0.7383     0.0342 C.3     
  15 C15           -4.0710    -0.9974     1.4578 C.ar    
  16 C16           -4.6847     0.0033     2.1916 C.ar    
  17 C17           -5.0708    -0.2362     3.4997 C.ar    
  18 C18           -4.8431    -1.4735     4.0712 C.ar    
  19 C19           -4.2301    -2.4723     3.3374 C.ar    
  20 C20           -3.8494    -2.2361     2.0297 C.ar    
  21 F21           -4.9063     1.2128     1.6320 F       
  22 N22            5.0878     2.8589    -0.0322 N.am    
  23 O23            4.3138     4.9381    -0.0140 O.2     
  24 C24            5.2716     4.1940    -0.0275 C.2     
  25 C25            6.6673     4.7625    -0.0389 C.3     
  26 C26            1.7790    -1.7982    -0.0242 C.3     
  27 H27           -1.3376     3.1669     0.0367 H       
  28 H28            4.2685     0.2677    -0.0363 H       
  29 H29           -4.4152    -0.1471    -0.4689 H       
  30 H30           -3.5243    -1.6879    -0.4860 H       
  31 H31           -5.5493     0.5439     4.0732 H       
  32 H32           -5.1438    -1.6604     5.0915 H       
  33 H33           -4.0523    -3.4389     3.7849 H       
  34 H34           -3.3707    -3.0170     1.4575 H       
  35 H35            5.8537     2.2638    -0.0430 H       
  36 H36            7.1884     4.4281    -0.9359 H       
  37 H37            6.6162     5.8512    -0.0330 H       
  38 H38            7.2066     4.4192     0.8439 H       
  39 H39            1.9036    -2.1481     1.0006 H       
  40 H40            1.0442    -2.4212    -0.5340 H       
  41 H41            2.7332    -1.8595    -0.5475 H       
@<TRIPOS>BOND
   1    1    2 2
   2    1    7 1
   3    1    6 1
   4    2    3 1
   5    2    9 1
   6    3    4 am
   7    3   13 2
   8    4    5 1
   9    4   14 1
  10    5    6 2
  11    6   27 1
  12    7    8 2
  13    7   10 1
  14    8    9 1
  15    8   12 1
  16    9   26 1
  17   10   11 1
  18   11   12 2
  19   11   22 1
  20   12   28 1
  21   14   15 1
  22   14   29 1
  23   14   30 1
  24   15   16 ar
  25   15   20 ar
  26   16   17 ar
  27   16   21 1
  28   17   18 ar
  29   17   31 1
  30   18   19 ar
  31   18   32 1
  32   19   20 ar
  33   19   33 1
  34   20   34 1
  35   22   24 am
  36   22   35 1
  37   23   24 2
  38   24   25 1
  39   25   36 1
  40   25   37 1
  41   25   38 1
  42   26   39 1
  43   26   40 1
  44   26   41 1

#	End of record

