#	Name: ASD04930068
#	Creating user name:	WinNT
#	Creation time:	15. 06. 2019 20:56

#	Modifying user name:	WinNT
#	Modification time:	15. 06. 2019 20:56

#	Program:	/corina/corina34_cracker 3.40 0067  02.08.2006

@<TRIPOS>MOLECULE
ASD04930068
  66   67    0    0    0
SMALL
NO_CHARGES


@<TRIPOS>ATOM
   1 C1            -0.1954     1.3429     0.1023 C.ar    
   2 C2            -0.2491    -0.0323     0.0850 C.ar    
   3 C3             0.9196    -0.7789     0.0056 C.ar    
   4 C4             2.1472    -0.1573    -0.0570 C.ar    
   5 C5             2.2266     1.2327    -0.0410 C.ar    
   6 C6             1.0445     1.9896     0.0389 C.ar    
   7 C7             1.1231     3.4540     0.0555 C.2     
   8 N8             3.4557     1.8576    -0.1037 N.am    
   9 C9             3.5695     3.1964    -0.0900 C.2     
  10 C10            2.3848     4.0498    -0.0104 C.2     
  11 O11            0.0056     4.2063     0.1321 O.3     
  12 O12            4.6745     3.7060    -0.1464 O.2     
  13 C13            2.5196     5.5117     0.0025 C.2     
  14 O14            1.5282     6.2146    -0.0560 O.2     
  15 N15            3.7416     6.0751     0.0790 N.am    
  16 N16            3.8793     7.4657    -0.0207 N.am    
  17 C17            5.1012     8.0291     0.0559 C.2     
  18 C18            5.2493     9.5250    -0.0513 C.3     
  19 O19            6.0817     7.3323     0.2110 O.2     
  20 C20            6.7278     9.9008     0.0662 C.3     
  21 C21            6.8781    11.4195    -0.0426 C.3     
  22 C22            8.3566    11.7954     0.0749 C.3     
  23 C23            8.5069    13.3141    -0.0339 C.3     
  24 C24            9.9854    13.6899     0.0836 C.3     
  25 C25           10.1357    15.2086    -0.0252 C.3     
  26 C26           11.6142    15.5845     0.0924 C.3     
  27 C27           11.7645    17.1032    -0.0165 C.3     
  28 C28           13.2430    17.4790     0.1011 C.3     
  29 C29           13.3933    18.9977    -0.0078 C.3     
  30 Br30          -1.9220    -0.9097     0.1705 Br      
  31 C31            4.6682     1.0396    -0.1868 C.3     
  32 C32            5.0060     0.7761    -1.6556 C.3     
  33 H33           -1.1061     1.9206     0.1600 H       
  34 H34            0.8652    -1.8575    -0.0069 H       
  35 H35            3.0488    -0.7486    -0.1182 H       
  36 H36            0.1749     5.1541     0.2225 H       
  37 H37            4.5257     5.5177     0.2031 H       
  38 H38            3.0951     8.0231    -0.1447 H       
  39 H39            4.8647     9.8601    -1.0146 H       
  40 H40            4.6878    10.0041     0.7507 H       
  41 H41            7.1124     9.5657     1.0295 H       
  42 H42            7.2893     9.4217    -0.7358 H       
  43 H43            6.4935    11.7546    -1.0059 H       
  44 H44            6.3166    11.8986     0.7594 H       
  45 H45            8.7412    11.4603     1.0382 H       
  46 H46            8.9181    11.3163    -0.7271 H       
  47 H47            8.1223    13.6492    -0.9972 H       
  48 H48            7.9454    13.7932     0.7681 H       
  49 H49           10.3700    13.3549     1.0469 H       
  50 H50           10.5469    13.2108    -0.7184 H       
  51 H51            9.7511    15.5437    -0.9885 H       
  52 H52            9.5742    15.6877     0.7768 H       
  53 H53           11.9988    15.2494     1.0556 H       
  54 H54           12.1757    15.1054    -0.7097 H       
  55 H55           11.3799    17.4383    -0.9797 H       
  56 H56           11.2030    17.5823     0.7855 H       
  57 H57           13.6276    17.1440     1.0643 H       
  58 H58           13.8045    16.9999    -0.7009 H       
  59 H59           14.4466    19.2655     0.0760 H       
  60 H60           13.0087    19.3328    -0.9710 H       
  61 H61           12.8318    19.4768     0.7942 H       
  62 H62            5.4957     1.5673     0.2874 H       
  63 H63            4.5021     0.0909     0.3236 H       
  64 H64            5.1721     1.7248    -2.1660 H       
  65 H65            5.9082     0.1675    -1.7174 H       
  66 H66            4.1785     0.2484    -2.1297 H       
@<TRIPOS>BOND
   1    1    2 ar
   2    1    6 ar
   3    1   33 1
   4    2    3 ar
   5    2   30 1
   6    3    4 ar
   7    3   34 1
   8    4    5 ar
   9    4   35 1
  10    5    6 ar
  11    5    8 1
  12    6    7 1
  13    7   10 2
  14    7   11 1
  15    8    9 am
  16    8   31 1
  17    9   10 1
  18    9   12 2
  19   10   13 1
  20   11   36 1
  21   13   14 2
  22   13   15 am
  23   15   16 1
  24   15   37 1
  25   16   17 am
  26   16   38 1
  27   17   18 1
  28   17   19 2
  29   18   20 1
  30   18   39 1
  31   18   40 1
  32   20   21 1
  33   20   41 1
  34   20   42 1
  35   21   22 1
  36   21   43 1
  37   21   44 1
  38   22   23 1
  39   22   45 1
  40   22   46 1
  41   23   24 1
  42   23   47 1
  43   23   48 1
  44   24   25 1
  45   24   49 1
  46   24   50 1
  47   25   26 1
  48   25   51 1
  49   25   52 1
  50   26   27 1
  51   26   53 1
  52   26   54 1
  53   27   28 1
  54   27   55 1
  55   27   56 1
  56   28   29 1
  57   28   57 1
  58   28   58 1
  59   29   59 1
  60   29   60 1
  61   29   61 1
  62   31   32 1
  63   31   62 1
  64   31   63 1
  65   32   64 1
  66   32   65 1
  67   32   66 1

#	End of record

