#	Name: ASD01913417
#	Creating user name:	WinNT
#	Creation time:	15. 06. 2019 20:01

#	Modifying user name:	WinNT
#	Modification time:	15. 06. 2019 20:01

#	Program:	/corina/corina34_cracker 3.40 0067  02.08.2006

@<TRIPOS>MOLECULE
ASD01913417
  34   36    0    0    0
SMALL
NO_CHARGES


@<TRIPOS>ATOM
   1 C1            -0.1083    -0.7205    -2.1596 C.ar    
   2 C2            -0.5524    -0.0423    -1.0290 C.ar    
   3 C3            -0.5255     1.3485    -1.0415 C.ar    
   4 N4            -0.0816     1.9723    -2.1203 N.ar    
   5 C5             0.3309     1.2939    -3.1722 C.ar    
   6 N6             0.3208    -0.0237    -3.1989 N.ar    
   7 C7            -1.0073    -2.0790     0.0069 C.ar    
   8 C8             0.1734    -2.7850     0.1914 C.ar    
   9 C9             0.1723    -4.1691     0.1446 C.ar    
  10 C10           -1.0049    -4.8551    -0.0867 C.ar    
  11 C11           -2.1962    -4.1517    -0.2731 C.ar    
  12 C12           -2.1925    -2.7575    -0.2250 C.ar    
  13 C13           -3.4574    -4.8817    -0.5212 C.2     
  14 N14           -3.4584    -6.2287    -0.5677 N.am    
  15 C15           -4.6611    -6.9204    -0.6955 C.ar    
  16 O16           -4.4936    -4.2672    -0.6833 O.2     
  17 O17           -1.0015    -0.7211     0.0595 O.3     
  18 F18            1.3250    -4.8504     0.3250 F       
  19 C19           -4.6677    -8.3084    -0.6258 C.ar    
  20 C20           -5.8703    -8.9833    -0.7540 C.ar    
  21 C21           -7.0287    -8.2416    -0.9482 C.ar    
  22 C22           -6.9473    -6.8645    -1.0072 C.ar    
  23 N23           -5.7878    -6.2489    -0.8767 N.ar    
  24 Br24          -5.9339   -10.8713    -0.6673 Br      
  25 H25           -0.1096    -1.8002    -2.1866 H       
  26 H26           -0.8623     1.9108    -0.1832 H       
  27 H27            0.6874     1.8333    -4.0373 H       
  28 H28            1.0959    -2.2533     0.3718 H       
  29 H29           -1.0032    -5.9345    -0.1234 H       
  30 H30           -3.1114    -2.2085    -0.3686 H       
  31 H31           -2.6219    -6.7165    -0.5122 H       
  32 H32           -3.7476    -8.8532    -0.4742 H       
  33 H33           -7.9828    -8.7368    -1.0523 H       
  34 H34           -7.8451    -6.2836    -1.1584 H       
@<TRIPOS>BOND
   1    1    2 ar
   2    1    6 ar
   3    1   25 1
   4    2    3 ar
   5    2   17 1
   6    3    4 ar
   7    3   26 1
   8    4    5 ar
   9    5    6 ar
  10    5   27 1
  11    7    8 ar
  12    7   12 ar
  13    7   17 1
  14    8    9 ar
  15    8   28 1
  16    9   10 ar
  17    9   18 1
  18   10   11 ar
  19   10   29 1
  20   11   12 ar
  21   11   13 1
  22   12   30 1
  23   13   14 am
  24   13   16 2
  25   14   15 1
  26   14   31 1
  27   15   19 ar
  28   15   23 ar
  29   19   20 ar
  30   19   32 1
  31   20   21 ar
  32   20   24 1
  33   21   22 ar
  34   21   33 1
  35   22   23 ar
  36   22   34 1

#	End of record

