#	Name: ASD01915633
#	Creating user name:	WinNT
#	Creation time:	15. 06. 2019 20:05

#	Modifying user name:	WinNT
#	Modification time:	15. 06. 2019 20:05

#	Program:	/corina/corina34_cracker 3.40 0067  02.08.2006

@<TRIPOS>MOLECULE
ASD01915633
  46   49    0    0    0
SMALL
NO_CHARGES


@<TRIPOS>ATOM
   1 C1            -0.0043     1.4630     0.2178 C.2     
   2 N2             0.0615     0.1099    -0.0288 N.pl3   
   3 C3            -1.1510    -0.6742    -0.2925 C.3     
   4 C4            -2.3298    -0.0463     0.4492 C.3     
   5 N5            -2.4043     1.3988     0.2637 N.am    
   6 C6            -1.2917     2.1721     0.2680 C.2     
   7 C7             1.2784     1.9002     0.3942 C.2     
   8 C8             2.0745     0.7556     0.2525 C.2     
   9 N9             1.2813    -0.2616     0.0091 N.2     
  10 C10            3.5767     0.7021     0.3602 C.3     
  11 O11            4.0817     2.0109     0.6325 O.3     
  12 C12            5.4287     2.1382     0.7602 C.ar    
  13 O13           -1.3542     3.3860     0.3109 O.2     
  14 C14            5.9872     3.3803     1.0249 C.ar    
  15 C15            6.2471     1.0254     0.6318 C.ar    
  16 C16            7.6160     1.1575     0.7620 C.ar    
  17 C17            8.1706     2.3974     1.0201 C.ar    
  18 C18            7.3567     3.5071     1.1542 C.ar    
  19 C19           -3.6492     1.9981     0.0777 C.ar    
  20 N20           -3.7166     3.2587    -0.3190 N.ar    
  21 C21           -0.9470    -2.1099     0.1953 C.3     
  22 C22           -4.8076     1.2635     0.3054 C.ar    
  23 C23           -6.0370     1.8693     0.1169 C.ar    
  24 C24           -6.0657     3.1967    -0.2952 C.ar    
  25 C25           -4.8736     3.8644    -0.5077 C.ar    
  26 F26           -7.2452     3.8257    -0.4909 F       
  27 C27           -4.8961     5.3035    -0.9546 C.3     
  28 H28           -1.3556    -0.6788    -1.3631 H       
  29 H29           -3.2541    -0.4960     0.0864 H       
  30 H30           -2.2306    -0.2601     1.5134 H       
  31 H31            1.6072     2.9086     0.5978 H       
  32 H32            3.8593     0.0281     1.1688 H       
  33 H33            3.9955     0.3391    -0.5784 H       
  34 H34            5.3519     4.2474     1.1293 H       
  35 H35            5.8143     0.0566     0.4305 H       
  36 H36            8.2535     0.2914     0.6625 H       
  37 H37            9.2411     2.4986     1.1216 H       
  38 H38            7.7923     4.4746     1.3554 H       
  39 H39           -0.7440    -2.1044     1.2662 H       
  40 H40           -1.8476    -2.6917    -0.0008 H       
  41 H41           -0.1040    -2.5565    -0.3320 H       
  42 H42           -4.7484     0.2336     0.6249 H       
  43 H43           -6.9535     1.3234     0.2858 H       
  44 H44           -4.8974     5.9552    -0.0809 H       
  45 H45           -4.0137     5.5096    -1.5604 H       
  46 H46           -5.7935     5.4864    -1.5456 H       
@<TRIPOS>BOND
   1    1    2 1
   2    1    7 2
   3    1    6 1
   4    2    3 1
   5    2    9 1
   6    3    4 1
   7    3   21 1
   8    3   28 1
   9    4    5 1
  10    4   29 1
  11    4   30 1
  12    5    6 am
  13    5   19 1
  14    6   13 2
  15    7    8 1
  16    7   31 1
  17    8    9 2
  18    8   10 1
  19   10   11 1
  20   10   32 1
  21   10   33 1
  22   11   12 1
  23   12   14 ar
  24   12   15 ar
  25   14   18 ar
  26   14   34 1
  27   15   16 ar
  28   15   35 1
  29   16   17 ar
  30   16   36 1
  31   17   18 ar
  32   17   37 1
  33   18   38 1
  34   19   20 ar
  35   19   22 ar
  36   20   25 ar
  37   21   39 1
  38   21   40 1
  39   21   41 1
  40   22   23 ar
  41   22   42 1
  42   23   24 ar
  43   23   43 1
  44   24   25 ar
  45   24   26 1
  46   25   27 1
  47   27   44 1
  48   27   45 1
  49   27   46 1

#	End of record

