#	Name: ASD02508272
#	Creating user name:	WinNT
#	Creation time:	15. 06. 2019 20:24

#	Modifying user name:	WinNT
#	Modification time:	15. 06. 2019 20:24

#	Program:	/corina/corina34_cracker 3.40 0067  02.08.2006

@<TRIPOS>MOLECULE
ASD02508272
  36   38    0    0    0
SMALL
NO_CHARGES


@<TRIPOS>ATOM
   1 C1            -0.0709     1.3038     0.3834 C.ar    
   2 C2            -0.0631    -0.0708     0.1480 C.ar    
   3 C3            -1.2590    -0.7657     0.0560 C.ar    
   4 C4            -2.4570    -0.0930     0.1979 C.ar    
   5 C5            -2.4658     1.2712     0.4310 C.ar    
   6 C6            -1.2780     1.9693     0.5294 C.ar    
   7 S7            -3.9784    -0.9742     0.0813 S.o2    
   8 N8            -4.7833    -0.3895    -1.2425 N.am    
   9 C9            -4.2730    -0.6099    -2.5237 C.ar    
  10 O10            1.2209     1.7125     0.4243 O.3     
  11 C11            2.0243     0.6558     0.2255 C.2     
  12 N12            1.2752    -0.4513     0.0529 N.am    
  13 O13           -3.6399    -2.3215    -0.2177 O.2     
  14 O14           -4.7472    -0.5995     1.2162 O.2     
  15 O15            3.2396     0.6917     0.2044 O.2     
  16 C16            1.7754    -1.8066    -0.1906 C.3     
  17 C17           -5.1141    -1.0356    -3.5437 C.ar    
  18 C18           -3.7774     1.9975     0.5837 C.3     
  19 C19           -2.9247    -0.3984    -2.7812 C.ar    
  20 C20           -2.4213    -0.6175    -4.0509 C.ar    
  21 C21           -3.2608    -1.0469    -5.0651 C.ar    
  22 C22           -4.6065    -1.2534    -4.8119 C.ar    
  23 F23           -5.4233    -1.6723    -5.8032 F       
  24 F24           -1.1098    -0.4119    -4.3019 F       
  25 H25           -1.2540    -1.8301    -0.1266 H       
  26 H26           -1.2900     3.0337     0.7118 H       
  27 H27           -5.6093     0.1062    -1.1281 H       
  28 H28            2.8651    -1.7930    -0.2135 H       
  29 H29            1.4370    -2.4676     0.6073 H       
  30 H30            1.3964    -2.1674    -1.1467 H       
  31 H31           -6.1637    -1.1967    -3.3467 H       
  32 H32           -4.1200     1.9160     1.6152 H       
  33 H33           -3.6427     3.0484     0.3276 H       
  34 H34           -4.5181     1.5536    -0.0814 H       
  35 H35           -2.2698    -0.0628    -1.9907 H       
  36 H36           -2.8663    -1.2167    -6.0560 H       
@<TRIPOS>BOND
   1    1    2 ar
   2    1   10 1
   3    1    6 ar
   4    2    3 ar
   5    2   12 1
   6    3    4 ar
   7    3   25 1
   8    4    5 ar
   9    4    7 1
  10    5    6 ar
  11    5   18 1
  12    6   26 1
  13    7    8 am
  14    7   13 2
  15    7   14 2
  16    8    9 1
  17    8   27 1
  18    9   17 ar
  19    9   19 ar
  20   10   11 1
  21   11   12 am
  22   11   15 2
  23   12   16 1
  24   16   28 1
  25   16   29 1
  26   16   30 1
  27   17   22 ar
  28   17   31 1
  29   18   32 1
  30   18   33 1
  31   18   34 1
  32   19   20 ar
  33   19   35 1
  34   20   21 ar
  35   20   24 1
  36   21   22 ar
  37   21   36 1
  38   22   23 1

#	End of record

