#	Name: ASD03430909
#	Creating user name:	WinNT
#	Creation time:	15. 06. 2019 20:41

#	Modifying user name:	WinNT
#	Modification time:	15. 06. 2019 20:41

#	Program:	/corina/corina34_cracker 3.40 0067  02.08.2006

@<TRIPOS>MOLECULE
ASD03430909
  49   54    0    0    0
SMALL
NO_CHARGES


@<TRIPOS>ATOM
   1 O1            -0.0175     1.4360     0.0099 O.3     
   2 C2             0.0021    -0.0041     0.0020 C.3     
   3 C3             1.3461    -0.3164    -0.6698 C.3     
   4 C4             2.1582     0.9229    -0.4069 C.ar    
   5 C5             1.2617     1.9074     0.0003 C.ar    
   6 C6             1.7447     3.1702     0.3229 C.ar    
   7 C7             3.1022     3.4543     0.2326 C.ar    
   8 C8             3.9761     2.4543    -0.1768 C.ar    
   9 C9             3.5061     1.1996    -0.4966 C.ar    
  10 N10            2.1636    -2.4023    -1.1230 N.am    
  11 C11            1.9853    -1.5481    -0.0957 C.2     
  12 C12            1.1903    -0.5954    -2.1352 C.ar    
  13 C13            0.6783     0.1237    -3.1916 C.ar    
  14 C14            0.6753    -0.4203    -4.4642 C.ar    
  15 C15            1.1877    -1.6874    -4.6720 C.ar    
  16 C16            1.7010    -2.4128    -3.6166 C.ar    
  17 C17            1.7075    -1.8736    -2.3328 C.ar    
  18 O18            2.2832    -1.7369     1.0647 O.2     
  19 C19            5.3713     3.0471    -0.1611 C.3     
  20 C20            5.1632     4.3321     0.6748 C.3     
  21 O21            3.7677     4.6168     0.4792 O.3     
  22 C22            2.7653    -3.7311    -0.9865 C.3     
  23 C23            1.6868    -4.7439    -0.7000 C.2     
  24 N24            1.0252    -5.4120    -1.5965 N.2     
  25 C25            0.1398    -6.2270    -0.9608 C.2     
  26 C26            0.2955    -6.0213     0.3763 C.2     
  27 O27            1.2628    -5.1017     0.5204 O.3     
  28 C28           -0.8081    -7.1563    -1.5986 C.2     
  29 O29           -0.8528    -7.2567    -2.9419 O.3     
  30 O30           -1.5500    -7.8328    -0.9137 O.2     
  31 C31           -1.8114    -8.1928    -3.5015 C.3     
  32 H32           -0.0228    -0.3969     1.0185 H       
  33 H33           -0.8258    -0.3989    -0.5869 H       
  34 H34            1.0581     3.9384     0.6467 H       
  35 H35            4.1941     0.4316    -0.8179 H       
  36 H36            0.2782     1.1133    -3.0270 H       
  37 H37            0.2733     0.1436    -5.2929 H       
  38 H38            1.1859    -2.1117    -5.6652 H       
  39 H39            2.0988    -3.4024    -3.7866 H       
  40 H40            6.0752     2.3738     0.3282 H       
  41 H41            5.7033     3.2887    -1.1708 H       
  42 H42            5.3755     4.1464     1.7277 H       
  43 H43            5.7804     5.1453     0.2929 H       
  44 H44            3.2755    -3.9958    -1.9126 H       
  45 H45            3.4828    -3.7225    -0.1660 H       
  46 H46           -0.2522    -6.5079     1.1697 H       
  47 H47           -1.5918    -9.1974    -3.1399 H       
  48 H48           -2.8181    -7.9085    -3.1954 H       
  49 H49           -1.7438    -8.1754    -4.5892 H       
@<TRIPOS>BOND
   1    1    2 1
   2    1    5 1
   3    2    3 1
   4    2   32 1
   5    2   33 1
   6    3    4 1
   7    3   11 1
   8    3   12 1
   9    4    5 ar
  10    4    9 ar
  11    5    6 ar
  12    6    7 ar
  13    6   34 1
  14    7    8 ar
  15    7   21 1
  16    8    9 ar
  17    8   19 1
  18    9   35 1
  19   10   11 am
  20   10   17 1
  21   10   22 1
  22   11   18 2
  23   12   13 ar
  24   12   17 ar
  25   13   14 ar
  26   13   36 1
  27   14   15 ar
  28   14   37 1
  29   15   16 ar
  30   15   38 1
  31   16   17 ar
  32   16   39 1
  33   19   20 1
  34   19   40 1
  35   19   41 1
  36   20   21 1
  37   20   42 1
  38   20   43 1
  39   22   23 1
  40   22   44 1
  41   22   45 1
  42   23   24 2
  43   23   27 1
  44   24   25 1
  45   25   26 2
  46   25   28 1
  47   26   27 1
  48   26   46 1
  49   28   29 1
  50   28   30 2
  51   29   31 1
  52   31   47 1
  53   31   48 1
  54   31   49 1

#	End of record

