#	Name: ASD02500107
#	Creating user name:	WinNT
#	Creation time:	15. 06. 2019 20:22

#	Modifying user name:	WinNT
#	Modification time:	15. 06. 2019 20:22

#	Program:	/corina/corina34_cracker 3.40 0067  02.08.2006

@<TRIPOS>MOLECULE
ASD02500107
  65   69    0    0    0
SMALL
NO_CHARGES


@<TRIPOS>ATOM
   1 N1            -3.5666     5.9307    -1.4804 N.ar    
   2 C2            -4.3657     6.5969    -2.2778 C.ar    
   3 C3            -5.7450     6.6205    -2.0813 C.ar    
   4 C4            -6.2963     5.9366    -1.0355 C.ar    
   5 C5            -5.4351     5.2219    -0.1815 C.ar    
   6 C6            -5.9287     4.4960     0.9141 C.ar    
   7 C7            -5.0630     3.8178     1.7171 C.ar    
   8 C8            -3.6927     3.8347     1.4663 C.ar    
   9 C9            -3.1800     4.5279     0.4131 C.ar    
  10 C10           -4.0416     5.2406    -0.4386 C.ar    
  11 S11           -1.4427     4.5329     0.1193 S.o2    
  12 O12           -1.0650     5.8945    -0.0307 O.2     
  13 O13           -0.8688     3.6697     1.0913 O.2     
  14 N14           -1.1922     3.8135    -1.3511 N.am    
  15 C15           -1.4577     2.4580    -1.5166 C.ar    
  16 C16           -0.6794     1.6983    -2.3874 C.ar    
  17 C17           -0.9401     0.3566    -2.5530 C.ar    
  18 C18           -1.9871    -0.2428    -1.8460 C.ar    
  19 C19           -2.7656     0.5225    -0.9733 C.ar    
  20 C20           -2.4965     1.8624    -0.8077 C.ar    
  21 C21           -2.2696    -1.6801    -2.0212 C.2     
  22 O22           -2.2152    -2.1798    -3.1284 O.2     
  23 N23           -2.5880    -2.4392    -0.9541 N.am    
  24 C24           -2.7470    -3.8256    -1.1309 C.3     
  25 C25           -4.1679    -4.2686    -0.6984 C.3     
  26 N26           -4.2473    -4.2132     0.7469 N.3     
  27 C27           -4.7894    -2.9549     1.3004 C.3     
  28 C28           -4.2432    -1.7012     0.6192 C.3     
  29 C29           -2.7519    -1.7868     0.3610 C.3     
  30 C30           -4.9349    -5.3217     1.2544 C.ar    
  31 C31           -4.2763    -6.2380     2.0720 C.ar    
  32 C32           -4.9616    -7.3325     2.5716 C.ar    
  33 C33           -6.2966    -7.5149     2.2586 C.ar    
  34 C34           -6.9504    -6.6068     1.4474 C.ar    
  35 C35           -6.2749    -5.5080     0.9495 C.ar    
  36 O36           -2.9634    -6.0579     2.3782 O.3     
  37 C37           -2.3537    -7.0372     3.2216 C.3     
  38 Cl38           0.6196     2.4441    -3.2649 Cl      
  39 H39           -3.9438     7.1424    -3.1089 H       
  40 H40           -6.3775     7.1793    -2.7552 H       
  41 H41           -7.3632     5.9442    -0.8681 H       
  42 H42           -6.9889     4.4760     1.1191 H       
  43 H43           -5.4436     3.2597     2.5597 H       
  44 H44           -3.0265     3.2893     2.1182 H       
  45 H45           -0.8603     4.3373    -2.0971 H       
  46 H46           -0.3370    -0.2321    -3.2283 H       
  47 H47           -3.5748     0.0621    -0.4260 H       
  48 H48           -3.0952     2.4529    -0.1301 H       
  49 H49           -2.5970    -4.0737    -2.1816 H       
  50 H50           -2.0070    -4.3523    -0.5283 H       
  51 H51           -4.9087    -3.5968    -1.1319 H       
  52 H52           -4.3522    -5.2884    -1.0364 H       
  53 H53           -5.8740    -2.9656     1.1932 H       
  54 H54           -4.5474    -2.9083     2.3622 H       
  55 H55           -4.7597    -1.5624    -0.3306 H       
  56 H56           -4.4416    -0.8389     1.2558 H       
  57 H57           -2.2720    -2.3850     1.1357 H       
  58 H58           -2.3168    -0.7877     0.3378 H       
  59 H59           -4.4536    -8.0442     3.2055 H       
  60 H60           -6.8294    -8.3695     2.6490 H       
  61 H61           -7.9926    -6.7537     1.2051 H       
  62 H62           -6.7894    -4.7975     0.3195 H       
  63 H63           -2.8758    -7.0689     4.1779 H       
  64 H64           -2.4114    -8.0151     2.7435 H       
  65 H65           -1.3087    -6.7747     3.3867 H       
@<TRIPOS>BOND
   1    1    2 ar
   2    1   10 ar
   3    2    3 ar
   4    2   39 1
   5    3    4 ar
   6    3   40 1
   7    4    5 ar
   8    4   41 1
   9    5    6 ar
  10    5   10 ar
  11    6    7 ar
  12    6   42 1
  13    7    8 ar
  14    7   43 1
  15    8    9 ar
  16    8   44 1
  17    9   10 ar
  18    9   11 1
  19   11   12 2
  20   11   13 2
  21   11   14 am
  22   14   15 1
  23   14   45 1
  24   15   16 ar
  25   15   20 ar
  26   16   17 ar
  27   16   38 1
  28   17   18 ar
  29   17   46 1
  30   18   19 ar
  31   18   21 1
  32   19   20 ar
  33   19   47 1
  34   20   48 1
  35   21   22 2
  36   21   23 am
  37   23   24 1
  38   23   29 1
  39   24   25 1
  40   24   49 1
  41   24   50 1
  42   25   26 1
  43   25   51 1
  44   25   52 1
  45   26   27 1
  46   26   30 1
  47   27   28 1
  48   27   53 1
  49   27   54 1
  50   28   29 1
  51   28   55 1
  52   28   56 1
  53   29   57 1
  54   29   58 1
  55   30   31 ar
  56   30   35 ar
  57   31   32 ar
  58   31   36 1
  59   32   33 ar
  60   32   59 1
  61   33   34 ar
  62   33   60 1
  63   34   35 ar
  64   34   61 1
  65   35   62 1
  66   36   37 1
  67   37   63 1
  68   37   64 1
  69   37   65 1

#	End of record

