#	Name: ASD01180267
#	Creating user name:	WinNT
#	Creation time:	15. 06. 2019 19:07

#	Modifying user name:	WinNT
#	Modification time:	15. 06. 2019 19:07

#	Program:	/corina/corina34_cracker 3.40 0067  02.08.2006

@<TRIPOS>MOLECULE
ASD01180267
  63   65    0    0    0
SMALL
NO_CHARGES


@<TRIPOS>ATOM
   1 C1            -2.6061    -1.6006    -5.7505 C.2     
   2 C2            -2.0221    -2.3765    -4.5981 C.3     
   3 C3            -1.0252    -3.4078    -5.1307 C.3     
   4 O4            -2.2605    -1.8472    -6.8817 O.2     
   5 O5            -3.5143    -0.6394    -5.5207 O.3     
   6 C6             0.4503    -5.1310    -4.2416 C.2     
   7 C7             1.0221    -5.8906    -3.1133 C.ar    
   8 C8             1.9681    -6.9017    -3.3426 C.ar    
   9 C9             2.4718    -7.5806    -2.2665 C.ar    
  10 C10            2.0347    -7.2514    -0.9844 C.ar    
  11 N11            1.1393    -6.2917    -0.7953 N.ar    
  12 C12            0.6342    -5.6101    -1.8024 C.ar    
  13 O13            0.7981    -5.3792    -5.3799 O.2     
  14 N14           -0.4575    -4.1620    -4.0104 N.am    
  15 N15            2.5422    -7.9361     0.1067 N.pl3   
  16 C16            3.6161    -8.9154    -0.0778 C.3     
  17 C17            4.3826    -9.0852     1.2354 C.3     
  18 C18            5.0452    -7.7591     1.6143 C.3     
  19 C19            5.6945    -7.8892     2.9936 C.3     
  20 C20            3.0239   -10.2389    -0.4885 C.ar    
  21 C21            3.6537   -11.0063    -1.4518 C.ar    
  22 C22            3.1158   -12.2192    -1.8318 C.ar    
  23 C23            1.9360   -12.6703    -1.2431 C.ar    
  24 C24            1.3058   -11.8930    -0.2731 C.ar    
  25 C25            1.8556   -10.6844     0.1032 C.ar    
  26 C26            1.3528   -13.9729    -1.6477 C.ar    
  27 C27            0.1728   -14.4161    -1.0537 C.ar    
  28 C28           -0.3592   -15.6334    -1.4415 C.ar    
  29 C29            0.3070   -16.3686    -2.4119 C.ar    
  30 C30            1.4739   -15.8685    -2.9593 C.ar    
  31 N31            1.9561   -14.7038    -2.5759 N.ar    
  32 C32           -0.2359   -17.6997    -2.8642 C.3     
  33 F33           -1.1046   -17.5065    -3.9436 F       
  34 F34            0.8223   -18.5252    -3.2591 F       
  35 F35           -0.9295   -18.3030    -1.8096 F       
  36 C36            6.1149    -7.4091     0.5780 C.3     
  37 H37           -1.5102    -1.6921    -3.9216 H       
  38 H38           -2.8217    -2.8874    -4.0617 H       
  39 H39           -1.5371    -4.0922    -5.8072 H       
  40 H40           -0.2256    -2.8969    -5.6671 H       
  41 H41           -3.8603    -0.1690    -6.2915 H       
  42 H42            2.2909    -7.1388    -4.3456 H       
  43 H43            3.2010    -8.3645    -2.4092 H       
  44 H44           -0.0894    -4.8311    -1.6128 H       
  45 H45           -0.7350    -3.9641    -3.1022 H       
  46 H46            2.1867    -7.7675     0.9933 H       
  47 H47            4.2973    -8.5657    -0.8536 H       
  48 H48            3.6915    -9.3843     2.0235 H       
  49 H49            5.1478    -9.8517     1.1129 H       
  50 H50            4.2925    -6.9712     1.6399 H       
  51 H51            6.4471    -8.6772     2.9680 H       
  52 H52            6.1665    -6.9445     3.2635 H       
  53 H53            4.9323    -8.1386     3.7319 H       
  54 H54            4.5678   -10.6555    -1.9076 H       
  55 H55            3.6082   -12.8174    -2.5842 H       
  56 H56            0.3913   -12.2378     0.1864 H       
  57 H57            1.3707   -10.0833     0.8582 H       
  58 H58           -0.3194   -13.8181    -0.3010 H       
  59 H59           -1.2723   -16.0031    -0.9987 H       
  60 H60            1.9948   -16.4382    -3.7147 H       
  61 H61            5.6461    -7.2735    -0.3966 H       
  62 H62            6.6169    -6.4870     0.8712 H       
  63 H63            6.8440    -8.2174     0.5211 H       
@<TRIPOS>BOND
   1    1    2 1
   2    1    4 2
   3    1    5 1
   4    2    3 1
   5    2   37 1
   6    2   38 1
   7    3   14 1
   8    3   39 1
   9    3   40 1
  10    5   41 1
  11    6    7 1
  12    6   13 2
  13    6   14 am
  14    7    8 ar
  15    7   12 ar
  16    8    9 ar
  17    8   42 1
  18    9   10 ar
  19    9   43 1
  20   10   11 ar
  21   10   15 1
  22   11   12 ar
  23   12   44 1
  24   14   45 1
  25   15   16 1
  26   15   46 1
  27   16   17 1
  28   16   20 1
  29   16   47 1
  30   17   18 1
  31   17   48 1
  32   17   49 1
  33   18   19 1
  34   18   36 1
  35   18   50 1
  36   19   51 1
  37   19   52 1
  38   19   53 1
  39   20   21 ar
  40   20   25 ar
  41   21   22 ar
  42   21   54 1
  43   22   23 ar
  44   22   55 1
  45   23   24 ar
  46   23   26 1
  47   24   25 ar
  48   24   56 1
  49   25   57 1
  50   26   27 ar
  51   26   31 ar
  52   27   28 ar
  53   27   58 1
  54   28   29 ar
  55   28   59 1
  56   29   30 ar
  57   29   32 1
  58   30   31 ar
  59   30   60 1
  60   32   33 1
  61   32   34 1
  62   32   35 1
  63   36   61 1
  64   36   62 1
  65   36   63 1

#	End of record

