#	Name: ASD00844964
#	Creating user name:	WinNT
#	Creation time:	15. 06. 2019 18:51

#	Modifying user name:	WinNT
#	Modification time:	15. 06. 2019 18:51

#	Program:	/corina/corina34_cracker 3.40 0067  02.08.2006

@<TRIPOS>MOLECULE
ASD00844964
  88   93    0    0    0
SMALL
NO_CHARGES


@<TRIPOS>ATOM
   1 C1             0.7253     1.2476    -0.4072 C.ar    
   2 C2             0.9734    -0.0917    -0.6698 C.ar    
   3 C3             0.8533    -1.0292     0.3460 C.ar    
   4 C4             0.4872    -0.6270     1.6157 C.ar    
   5 C5             0.2400     0.7087     1.8748 C.ar    
   6 C6             0.3594     1.6448     0.8645 C.ar    
   7 C7             1.1216    -2.4851     0.0642 C.3     
   8 C8             0.7969    -3.3289     1.2784 C.2     
   9 C9             0.3114    -2.9534    -1.1462 C.3     
  10 C10           -1.1494    -2.6637    -0.9155 C.2     
  11 N11           -2.0688    -3.0849    -1.8064 N.am    
  12 O12           -1.4976    -2.0516     0.0718 O.2     
  13 C13           -3.4822    -2.7127    -1.6562 C.3     
  14 C14           -4.3326    -3.9867    -1.6771 C.3     
  15 C15           -4.0234    -4.7808    -2.9483 C.3     
  16 C16           -2.5474    -5.1852    -2.9529 C.3     
  17 C17           -1.6759    -3.9200    -2.9496 C.3     
  18 N18           -4.8613    -5.9868    -2.9879 N.3     
  19 C19           -4.6781    -6.7141    -4.2516 C.3     
  20 C20           -5.5051    -8.0016    -4.2207 C.3     
  21 N21           -6.9203    -7.6667    -4.0094 N.3     
  22 C22           -7.1035    -6.9394    -2.7457 C.3     
  23 C23           -6.2765    -5.6520    -2.7766 C.3     
  24 C24           -7.7582    -8.8727    -4.0490 C.3     
  25 O25           -0.2879    -3.4396     1.8095 O.2     
  26 N26            1.9360    -3.9327     1.6568 N.am    
  27 C27            2.5980    -2.7175    -0.1612 C.ar    
  28 C28            3.0118    -3.5952     0.8330 C.ar    
  29 C29            3.4875    -2.2413    -1.0982 C.ar    
  30 C30            5.2396    -3.5142    -0.0687 C.ar    
  31 C31            4.3467    -3.9915     0.8715 C.ar    
  32 F32            6.5328    -3.9028    -0.0260 F       
  33 C33            1.7296    -6.5863     2.3569 C.ar    
  34 C34            2.7716    -7.3731     1.9019 C.ar    
  35 C35            0.4367    -7.0764     2.3516 C.ar    
  36 C36            0.1830    -8.3539     1.8913 C.ar    
  37 C37            1.2267    -9.1454     1.4343 C.ar    
  38 C38            2.5230    -8.6512     1.4402 C.ar    
  39 O39            0.9797   -10.4027     0.9814 O.3     
  40 H40            3.7806    -6.9881     1.9071 H       
  41 C41            2.1024   -11.1605     0.5261 C.3     
  42 C42            4.8144    -2.6379    -1.0557 C.ar    
  43 F43            5.6906    -2.1731    -1.9730 F       
  44 S44            2.0510    -4.9590     2.9513 S.o2    
  45 O45            3.4126    -4.9418     3.3574 O.2     
  46 O46            0.9763    -4.6300     3.8209 O.2     
  47 O47            1.3330    -0.4849    -1.9199 O.3     
  48 C48            1.3589     0.5213    -2.9342 C.3     
  49 C49            1.8671    -0.0868    -4.2430 C.3     
  50 F50            3.1212    -0.6694    -4.0305 F       
  51 F51            0.9677    -1.0636    -4.6836 F       
  52 H52            0.8225     1.9798    -1.1951 H       
  53 H53            0.3936    -1.3564     2.4067 H       
  54 H54           -0.0468     1.0211     2.8680 H       
  55 H55            0.1658     2.6874     1.0694 H       
  56 H56            0.6504    -2.4246    -2.0370 H       
  57 H57            0.4517    -4.0255    -1.2847 H       
  58 H58           -3.6247    -2.1937    -0.7083 H       
  59 H59           -3.7782    -2.0623    -2.4793 H       
  60 H60           -4.0991    -4.5943    -0.8027 H       
  61 H61           -5.3891    -3.7192    -1.6632 H       
  62 H62           -4.2337    -4.1640    -3.8220 H       
  63 H63           -2.3307    -5.7815    -2.0665 H       
  64 H64           -2.3334    -5.7706    -3.8470 H       
  65 H65           -1.8259    -3.3706    -3.8790 H       
  66 H66           -0.6267    -4.1993    -2.8530 H       
  67 H67           -5.0084    -6.0896    -5.0817 H       
  68 H68           -3.6243    -6.9617    -4.3792 H       
  69 H69           -5.3936    -8.5283    -5.1684 H       
  70 H70           -5.1567    -8.6381    -3.4073 H       
  71 H71           -8.1573    -6.6918    -2.6181 H       
  72 H72           -6.7733    -7.5639    -1.9155 H       
  73 H73           -6.3881    -5.1252    -1.8289 H       
  74 H74           -6.6250    -5.0154    -3.5900 H       
  75 H75           -7.4413    -9.5612    -3.2657 H       
  76 H76           -8.8005    -8.5963    -3.8900 H       
  77 H77           -7.6546    -9.3554    -5.0208 H       
  78 H78            3.1512    -1.5598    -1.8655 H       
  79 H79            4.6843    -4.6735     1.6378 H       
  80 H80           -0.3754    -6.4600     2.7078 H       
  81 H81           -0.8270    -8.7364     1.8877 H       
  82 H82            3.3372    -9.2655     1.0853 H       
  83 H83            2.5804   -10.6392    -0.3033 H       
  84 H84            2.8163   -11.2778     1.3413 H       
  85 H85            1.7668   -12.1426     0.1928 H       
  86 H86            0.3529     0.9137    -3.0825 H       
  87 H87            2.0227     1.3296    -2.6273 H       
  88 H88            1.9529     0.6950    -4.9977 H       
@<TRIPOS>BOND
   1    1    2 ar
   2    1    6 ar
   3    1   52 1
   4    2    3 ar
   5    2   47 1
   6    3    4 ar
   7    3    7 1
   8    4    5 ar
   9    4   53 1
  10    5    6 ar
  11    5   54 1
  12    6   55 1
  13    7    8 1
  14    7    9 1
  15    7   27 1
  16    8   25 2
  17    8   26 am
  18    9   10 1
  19    9   56 1
  20    9   57 1
  21   10   11 am
  22   10   12 2
  23   11   13 1
  24   11   17 1
  25   13   14 1
  26   13   58 1
  27   13   59 1
  28   14   15 1
  29   14   60 1
  30   14   61 1
  31   15   16 1
  32   15   18 1
  33   15   62 1
  34   16   17 1
  35   16   63 1
  36   16   64 1
  37   17   65 1
  38   17   66 1
  39   18   19 1
  40   18   23 1
  41   19   20 1
  42   19   67 1
  43   19   68 1
  44   20   21 1
  45   20   69 1
  46   20   70 1
  47   21   22 1
  48   21   24 1
  49   22   23 1
  50   22   71 1
  51   22   72 1
  52   23   73 1
  53   23   74 1
  54   24   75 1
  55   24   76 1
  56   24   77 1
  57   26   44 am
  58   26   28 1
  59   27   28 ar
  60   27   29 ar
  61   28   31 ar
  62   29   42 ar
  63   29   78 1
  64   30   31 ar
  65   30   32 1
  66   30   42 ar
  67   31   79 1
  68   33   34 ar
  69   33   35 ar
  70   33   44 1
  71   34   40 1
  72   34   38 ar
  73   35   36 ar
  74   35   80 1
  75   36   37 ar
  76   36   81 1
  77   37   38 ar
  78   37   39 1
  79   38   82 1
  80   39   41 1
  81   41   83 1
  82   41   84 1
  83   41   85 1
  84   42   43 1
  85   44   45 2
  86   44   46 2
  87   47   48 1
  88   48   49 1
  89   48   86 1
  90   48   87 1
  91   49   50 1
  92   49   51 1
  93   49   88 1

#	End of record

