#	Name: ASD01912665
#	Creating user name:	WinNT
#	Creation time:	15. 06. 2019 20:00

#	Modifying user name:	WinNT
#	Modification time:	15. 06. 2019 20:00

#	Program:	/corina/corina34_cracker 3.40 0067  02.08.2006

@<TRIPOS>MOLECULE
ASD01912665
  67   71    0    0    0
SMALL
NO_CHARGES


@<TRIPOS>ATOM
   1 C1             0.0008     1.4166    -0.3898 C.ar    
   2 C2            -1.2143     1.9574     0.0311 C.ar    
   3 C3             1.2606     2.1626    -0.1737 C.2     
   4 N4             1.3790     3.5089     0.0077 N.pl3   
   5 C5             2.5141     1.6276    -0.1139 C.2     
   6 C6             3.4194     2.6796     0.1049 C.2     
   7 N7             2.7377     3.8037     0.1773 N.2     
   8 C8             4.8919     2.5461     0.2357 C.ar    
   9 C9             5.6786     3.6754     0.4521 C.ar    
  10 C10            5.4896     1.2901     0.1479 C.ar    
  11 C11            6.8578     1.1690     0.2702 C.ar    
  12 C12            7.6398     2.2967     0.4810 C.ar    
  13 C13            7.0468     3.5483     0.5736 C.ar    
  14 C14            0.2791     4.4765     0.0219 C.3     
  15 C15           -0.1681     4.7078     1.4423 C.2     
  16 N16           -1.1751     5.5656     1.7006 N.am    
  17 O17            0.3782     4.1221     2.3531 O.2     
  18 C18           -1.6272     5.8059     3.0794 C.3     
  19 C19           -1.6566     7.3182     3.3253 C.3     
  20 N20           -2.4668     7.9647     2.2844 N.3     
  21 C21           -1.8718     7.7793     0.9541 C.3     
  22 C22           -1.8471     6.2906     0.6115 C.3     
  23 C23           -2.6517     9.3098     2.5628 C.ar    
  24 N24           -2.1230     9.8521     3.6575 N.ar    
  25 C25           -2.2942    11.1300     3.9284 C.ar    
  26 N26           -2.9893    11.9221     3.1376 N.ar    
  27 C27           -3.5494    11.4561     2.0246 C.ar    
  28 C28           -3.3887    10.1157     1.6983 C.ar    
  29 C29           -2.3854     1.2571    -0.1733 C.ar    
  30 C30           -2.3563     0.0209    -0.7937 C.ar    
  31 C31           -1.1545    -0.5207    -1.2134 C.ar    
  32 C32            0.0241     0.1673    -1.0099 C.ar    
  33 O33            8.9878     2.1744     0.6016 O.3     
  34 C34            9.5311     0.8566     0.5011 C.3     
  35 C35            7.8990     4.7699     0.8026 C.3     
  36 O36           -4.2627    12.2791     1.2176 O.3     
  37 C37           -4.3762    13.6451     1.6214 C.3     
  38 H38           -1.2382     2.9221     0.5161 H       
  39 H39            2.7655     0.5822    -0.2159 H       
  40 H40            5.2178     4.6495     0.5243 H       
  41 H41            4.8817     0.4125    -0.0154 H       
  42 H42            7.3215     0.1960     0.2022 H       
  43 H43            0.6179     5.4180    -0.4102 H       
  44 H44           -0.5546     4.0874    -0.5627 H       
  45 H45           -2.6271     5.3935     3.2140 H       
  46 H46           -0.9364     5.3346     3.7786 H       
  47 H47           -2.0935     7.5192     4.3035 H       
  48 H48           -0.6407     7.7119     3.2924 H       
  49 H49           -2.4648     8.3148     0.2126 H       
  50 H50           -0.8529     8.1666     0.9543 H       
  51 H51           -1.3043     6.1385    -0.3213 H       
  52 H52           -2.8676     5.9215     0.5090 H       
  53 H53           -1.8524    11.5400     4.8245 H       
  54 H54           -3.8306     9.7070     0.8016 H       
  55 H55           -3.3268     1.6747     0.1520 H       
  56 H56           -3.2756    -0.5237    -0.9508 H       
  57 H57           -1.1381    -1.4864    -1.6968 H       
  58 H58            0.9617    -0.2564    -1.3383 H       
  59 H59            9.1087     0.2286     1.2855 H       
  60 H60            9.2848     0.4354    -0.4736 H       
  61 H61           10.6143     0.9006     0.6147 H       
  62 H62            8.2027     5.1862    -0.1579 H       
  63 H63            7.3262     5.5139     1.3562 H       
  64 H64            8.7844     4.4933     1.3750 H       
  65 H65           -4.9703    14.1922     0.8894 H       
  66 H66           -4.8622    13.6969     2.5956 H       
  67 H67           -3.3825    14.0883     1.6870 H       
@<TRIPOS>BOND
   1    1    2 ar
   2    1    3 1
   3    1   32 ar
   4    2   29 ar
   5    2   38 1
   6    3    4 1
   7    3    5 2
   8    4   14 1
   9    4    7 1
  10    5    6 1
  11    5   39 1
  12    6    7 2
  13    6    8 1
  14    8    9 ar
  15    8   10 ar
  16    9   13 ar
  17    9   40 1
  18   10   11 ar
  19   10   41 1
  20   11   12 ar
  21   11   42 1
  22   12   13 ar
  23   12   33 1
  24   13   35 1
  25   14   15 1
  26   14   43 1
  27   14   44 1
  28   15   16 am
  29   15   17 2
  30   16   18 1
  31   16   22 1
  32   18   19 1
  33   18   45 1
  34   18   46 1
  35   19   20 1
  36   19   47 1
  37   19   48 1
  38   20   21 1
  39   20   23 1
  40   21   22 1
  41   21   49 1
  42   21   50 1
  43   22   51 1
  44   22   52 1
  45   23   24 ar
  46   23   28 ar
  47   24   25 ar
  48   25   26 ar
  49   25   53 1
  50   26   27 ar
  51   27   28 ar
  52   27   36 1
  53   28   54 1
  54   29   30 ar
  55   29   55 1
  56   30   31 ar
  57   30   56 1
  58   31   32 ar
  59   31   57 1
  60   32   58 1
  61   33   34 1
  62   34   59 1
  63   34   60 1
  64   34   61 1
  65   35   62 1
  66   35   63 1
  67   35   64 1
  68   36   37 1
  69   37   65 1
  70   37   66 1
  71   37   67 1

#	End of record

