#	Name: ASD01230258
#	Creating user name:	WinNT
#	Creation time:	15. 06. 2019 19:12

#	Modifying user name:	WinNT
#	Modification time:	15. 06. 2019 19:12

#	Program:	/corina/corina34_cracker 3.40 0067  02.08.2006

@<TRIPOS>MOLECULE
ASD01230258
  39   41    0    0    0
SMALL
NO_CHARGES


@<TRIPOS>ATOM
   1 C1            -0.0169     1.3977     0.0097 C.ar    
   2 C2             0.0021    -0.0041     0.0020 C.ar    
   3 C3             1.2322    -0.6611    -0.0132 C.ar    
   4 C4             2.3894     0.1055    -0.0201 C.ar    
   5 C5             2.2901     1.4851    -0.0118 C.ar    
   6 N6             1.1135     2.0838     0.0026 N.ar    
   7 C7            -2.2599    -0.4887     0.9412 C.ar    
   8 C8            -1.2646    -0.7753     0.0104 C.ar    
   9 C9            -1.4770    -1.8011    -0.9170 C.ar    
  10 C10           -2.6733    -2.4914    -0.8702 C.ar    
  11 C11           -3.6186    -2.1472     0.0884 C.ar    
  12 N12           -3.3869    -1.1719     0.9519 N.ar    
  13 N13           -1.2325     2.0710     0.0191 N.pl3   
  14 F14            3.6017    -0.4905    -0.0345 F       
  15 O15           -4.7952    -2.8208     0.1399 O.3     
  16 C16           -5.7276    -2.4221     1.1467 C.3     
  17 C17           -7.1526    -2.6789     0.6527 C.3     
  18 C18           -8.1509    -2.2520     1.7307 C.3     
  19 C19           -7.9001    -3.0589     3.0062 C.3     
  20 C20           -6.4750    -2.8020     3.5003 C.3     
  21 C21           -5.4768    -3.2290     2.4223 C.3     
  22 H22            1.2831    -1.7398    -0.0192 H       
  23 H23            3.1899     2.0823    -0.0172 H       
  24 H24           -2.1048     0.2980     1.6647 H       
  25 H25           -0.7246    -2.0472    -1.6516 H       
  26 H26           -2.8714    -3.2890    -1.5709 H       
  27 H27           -2.0638     1.5712     0.0203 H       
  28 H28           -1.2497     3.0409     0.0245 H       
  29 H29           -5.6021    -1.3601     1.3580 H       
  30 H30           -7.3313    -2.1041    -0.2561 H       
  31 H31           -7.2781    -3.7409     0.4414 H       
  32 H32           -8.0254    -1.1901     1.9420 H       
  33 H33           -9.1661    -2.4350     1.3787 H       
  34 H34           -8.6113    -2.7547     3.7742 H       
  35 H35           -8.0256    -4.1208     2.7950 H       
  36 H36           -6.3496    -1.7401     3.7116 H       
  37 H37           -6.2964    -3.3769     4.4090 H       
  38 H38           -5.6023    -4.2909     2.2110 H       
  39 H39           -4.4616    -3.0460     2.7742 H       
@<TRIPOS>BOND
   1    1    2 ar
   2    1    6 ar
   3    1   13 1
   4    2    3 ar
   5    2    8 1
   6    3    4 ar
   7    3   22 1
   8    4    5 ar
   9    4   14 1
  10    5    6 ar
  11    5   23 1
  12    7    8 ar
  13    7   12 ar
  14    7   24 1
  15    8    9 ar
  16    9   10 ar
  17    9   25 1
  18   10   11 ar
  19   10   26 1
  20   11   12 ar
  21   11   15 1
  22   13   27 1
  23   13   28 1
  24   15   16 1
  25   16   17 1
  26   16   21 1
  27   16   29 1
  28   17   18 1
  29   17   30 1
  30   17   31 1
  31   18   19 1
  32   18   32 1
  33   18   33 1
  34   19   20 1
  35   19   34 1
  36   19   35 1
  37   20   21 1
  38   20   36 1
  39   20   37 1
  40   21   38 1
  41   21   39 1

#	End of record

