#	Name: ASD01148579
#	Creating user name:	WinNT
#	Creation time:	15. 06. 2019 19:02

#	Modifying user name:	WinNT
#	Modification time:	15. 06. 2019 19:02

#	Program:	/corina/corina34_cracker 3.40 0067  02.08.2006

@<TRIPOS>MOLECULE
ASD01148579
  58   62    0    0    0
SMALL
NO_CHARGES


@<TRIPOS>ATOM
   1 C1            -0.0170     1.4364    -0.0252 C.ar    
   2 C2             0.0192     0.0536    -0.0359 C.ar    
   3 C3            -1.1595    -0.6684    -0.0202 C.ar    
   4 C4            -2.3740    -0.0090     0.0060 C.ar    
   5 C5            -2.4107     1.3731     0.0167 C.ar    
   6 C6            -1.2330     2.0960     0.0064 C.ar    
   7 C7            -3.7353     2.0913     0.0454 C.3     
   8 O8            -4.7239     1.3223     0.7600 O.3     
   9 C9            -3.6509     3.3744     0.9060 C.3     
  10 C10           -4.1234     2.8922     2.2643 C.2     
  11 N11           -4.7048     1.7486     2.1080 N.2     
  12 C12           -3.9489     3.6043     3.5418 C.ar    
  13 C13           -4.4553     3.0231     4.7827 C.ar    
  14 C14           -3.2973     4.8294     3.5753 C.ar    
  15 C15           -3.1191     5.5197     4.7611 C.ar    
  16 C16           -3.5842     5.0171     5.9683 C.ar    
  17 C17           -4.2731     3.7292     5.9954 C.ar    
  18 C18           -3.3795     5.7754     7.2160 C.2     
  19 O19           -3.8798     5.3855     8.2535 O.2     
  20 N20           -2.6379     6.9007     7.2067 N.am    
  21 C21           -4.2116     2.4125    -1.3727 C.3     
  22 F22           -4.3441     1.2249    -2.1003 F       
  23 F23           -5.4485     3.0633    -1.3130 F       
  24 F24           -3.2776     3.2428    -2.0015 F       
  25 Cl25           1.4628     2.3439    -0.0442 Cl      
  26 C26           -2.4345     7.6542     8.4464 C.3     
  27 C27           -1.5759     8.8606     8.1660 C.ar    
  28 N28           -0.2629     8.7407     8.1688 N.ar    
  29 C29            0.5279     9.7686     7.9288 C.ar    
  30 C30            0.0017    11.0185     7.6640 C.ar    
  31 C31           -1.3752    11.1835     7.6524 C.ar    
  32 C32           -2.1742    10.0787     7.9032 C.ar    
  33 C33           -5.1139     1.7869     4.7971 C.ar    
  34 C34           -4.7586     3.1834     7.1904 C.ar    
  35 C35           -5.5702     1.2809     5.9778 C.ar    
  36 C36           -5.3954     1.9781     7.1703 C.ar    
  37 C37           -1.1204    -2.1749    -0.0324 C.3     
  38 F38            0.2101    -2.6066    -0.0595 F       
  39 F39           -1.7470    -2.6669     1.1176 F       
  40 F40           -1.7878    -2.6496    -1.1665 F       
  41 H41            0.9680    -0.4617    -0.0567 H       
  42 H42           -3.2946    -0.5736     0.0179 H       
  43 H43           -1.2618     3.1756     0.0148 H       
  44 H44           -2.6246     3.7374     0.9598 H       
  45 H45           -4.3154     4.1458     0.5166 H       
  46 H46           -2.9208     5.2528     2.6558 H       
  47 H47           -2.6065     6.4702     4.7471 H       
  48 H48           -2.2389     7.2117     6.3791 H       
  49 H49           -3.3992     7.9778     8.8374 H       
  50 H50           -1.9396     7.0188     9.1808 H       
  51 H51            1.5991     9.6318     7.9396 H       
  52 H52            0.6544    11.8565     7.4689 H       
  53 H53           -1.8146    12.1488     7.4489 H       
  54 H54           -3.2503    10.1704     7.9018 H       
  55 H55           -5.2596     1.2383     3.8783 H       
  56 H56           -4.6290     3.7139     8.1221 H       
  57 H57           -6.0778     0.3277     5.9879 H       
  58 H58           -5.7693     1.5581     8.0924 H       
@<TRIPOS>BOND
   1    1    2 ar
   2    1   25 1
   3    1    6 ar
   4    2    3 ar
   5    2   41 1
   6    3    4 ar
   7    3   37 1
   8    4    5 ar
   9    4   42 1
  10    5    6 ar
  11    5    7 1
  12    6   43 1
  13    7    8 1
  14    7    9 1
  15    7   21 1
  16    8   11 1
  17    9   10 1
  18    9   44 1
  19    9   45 1
  20   10   11 2
  21   10   12 1
  22   12   13 ar
  23   12   14 ar
  24   13   33 ar
  25   13   17 ar
  26   14   15 ar
  27   14   46 1
  28   15   16 ar
  29   15   47 1
  30   16   17 ar
  31   16   18 1
  32   17   34 ar
  33   18   19 2
  34   18   20 am
  35   20   26 1
  36   20   48 1
  37   21   22 1
  38   21   23 1
  39   21   24 1
  40   26   27 1
  41   26   49 1
  42   26   50 1
  43   27   28 ar
  44   27   32 ar
  45   28   29 ar
  46   29   30 ar
  47   29   51 1
  48   30   31 ar
  49   30   52 1
  50   31   32 ar
  51   31   53 1
  52   32   54 1
  53   33   35 ar
  54   33   55 1
  55   34   36 ar
  56   34   56 1
  57   35   36 ar
  58   35   57 1
  59   36   58 1
  60   37   38 1
  61   37   39 1
  62   37   40 1

#	End of record

