#	Name: ASD07300214
#	Creating user name:	WinNT
#	Creation time:	15. 06. 2019 21:09

#	Modifying user name:	WinNT
#	Modification time:	15. 06. 2019 21:09

#	Program:	/corina/corina34_cracker 3.40 0067  02.08.2006

@<TRIPOS>MOLECULE
ASD07300214
  46   50    0    0    0
SMALL
NO_CHARGES


@<TRIPOS>ATOM
   1 C1            -0.8659     0.9872    -0.1316 C.ar    
   2 C2            -1.0302    -0.3832    -0.3555 C.ar    
   3 C3             0.0544    -1.2328    -0.1966 C.ar    
   4 C4             1.2699    -0.6814     0.1819 C.ar    
   5 C5             1.3605     0.6825     0.3865 C.ar    
   6 N6             0.3125     1.4679     0.2290 N.ar    
   7 C7            -2.9799     0.6166    -0.7036 C.2     
   8 N8            -2.1037     1.5782    -0.3583 N.am    
   9 N9            -2.3602    -0.5790    -0.7154 N.am    
  10 O10           -4.1532     0.8002    -0.9686 O.2     
  11 C11           -2.3911     2.9466    -0.2462 C.ar    
  12 C12           -3.6748     3.4097    -0.5015 C.ar    
  13 C13           -3.9572     4.7567    -0.3911 C.ar    
  14 C14           -2.9584     5.6475    -0.0251 C.ar    
  15 C15           -1.6753     5.1851     0.2301 C.ar    
  16 C16           -1.3933     3.8375     0.1255 C.ar    
  17 O17           -3.2368     6.9738     0.0831 O.3     
  18 N18           -4.1901     6.5408     2.1447 N.ar    
  19 C19           -3.9144     7.3945     1.1792 C.ar    
  20 C20           -4.3163     8.7366     1.2769 C.ar    
  21 N21           -4.9727     9.1627     2.3293 N.ar    
  22 C22           -5.2637     8.3125     3.3217 C.ar    
  23 C23           -5.9656     8.7425     4.4603 C.ar    
  24 C24           -6.2480     7.8560     5.4543 C.ar    
  25 C25           -5.8509     6.5240     5.3605 C.ar    
  26 C26           -5.1692     6.0718     4.2722 C.ar    
  27 C27           -4.8597     6.9576     3.2264 C.ar    
  28 C28           -2.9809    -1.8649    -1.0431 C.3     
  29 C29           -3.5451    -2.4982     0.2303 C.3     
  30 H30           -0.0446    -2.2954    -0.3628 H       
  31 H31            2.1367    -1.3117     0.3158 H       
  32 H32            2.3062     1.1129     0.6813 H       
  33 H33           -4.4523     2.7165    -0.7867 H       
  34 H34           -4.9557     5.1171    -0.5899 H       
  35 H35           -0.8981     5.8788     0.5150 H       
  36 H36           -0.3957     3.4771     0.3285 H       
  37 H37           -4.0824     9.4245     0.4778 H       
  38 H38           -6.2795     9.7722     4.5470 H       
  39 H39           -6.7874     8.1903     6.3282 H       
  40 H40           -6.0868     5.8405     6.1626 H       
  41 H41           -4.8673     5.0366     4.2131 H       
  42 H42           -3.7878    -1.7070    -1.7587 H       
  43 H43           -2.2338    -2.5285    -1.4786 H       
  44 H44           -2.7381    -2.6561     0.9458 H       
  45 H45           -4.2922    -1.8346     0.6658 H       
  46 H46           -4.0069    -3.4549    -0.0135 H       
@<TRIPOS>BOND
   1    1    2 ar
   2    1    6 ar
   3    1    8 1
   4    2    3 ar
   5    2    9 1
   6    3    4 ar
   7    3   30 1
   8    4    5 ar
   9    4   31 1
  10    5    6 ar
  11    5   32 1
  12    7    8 am
  13    7    9 am
  14    7   10 2
  15    8   11 1
  16    9   28 1
  17   11   12 ar
  18   11   16 ar
  19   12   13 ar
  20   12   33 1
  21   13   14 ar
  22   13   34 1
  23   14   15 ar
  24   14   17 1
  25   15   16 ar
  26   15   35 1
  27   16   36 1
  28   17   19 1
  29   18   19 ar
  30   18   27 ar
  31   19   20 ar
  32   20   21 ar
  33   20   37 1
  34   21   22 ar
  35   22   23 ar
  36   22   27 ar
  37   23   24 ar
  38   23   38 1
  39   24   25 ar
  40   24   39 1
  41   25   26 ar
  42   25   40 1
  43   26   27 ar
  44   26   41 1
  45   28   29 1
  46   28   42 1
  47   28   43 1
  48   29   44 1
  49   29   45 1
  50   29   46 1

#	End of record

