#	Name: ASD04640015
#	Creating user name:	WinNT
#	Creation time:	15. 06. 2019 20:52

#	Modifying user name:	WinNT
#	Modification time:	15. 06. 2019 20:52

#	Program:	/corina/corina34_cracker 3.40 0067  02.08.2006

@<TRIPOS>MOLECULE
ASD04640015
  22   23    0    0    0
SMALL
NO_CHARGES


@<TRIPOS>ATOM
   1 C1            -0.0168     1.3844     0.0097 C.ar    
   2 C2             1.1698     2.0899     0.0021 C.ar    
   3 C3             2.3767     1.4136    -0.0198 C.ar    
   4 C4             2.4003     0.0193    -0.0307 C.ar    
   5 C5             1.1971    -0.6889    -0.0184 C.ar    
   6 C6             0.0021    -0.0041     0.0020 C.ar    
   7 C7             3.6492    -0.6809    -0.0547 C.1     
   8 N8             4.6399    -1.2364    -0.0737 N.1     
   9 N9            -1.2024     3.4767     0.4393 N.3     
  10 C10           -0.1763     4.1462    -0.3755 C.3     
  11 C11            1.1939     3.5970     0.0225 C.3     
  12 C12           -1.3532     2.0801     0.0196 C.3     
  13 H13            3.3038     1.9675    -0.0290 H       
  14 H14            1.2032    -1.7688    -0.0253 H       
  15 H15           -0.9286    -0.5519     0.0117 H       
  16 H16           -0.9802     3.5370     1.4217 H       
  17 H17           -0.3586     3.9456    -1.4313 H       
  18 H18           -0.2073     5.2204    -0.1932 H       
  19 H19            1.4443     3.9414     1.0259 H       
  20 H20            1.9458     3.9565    -0.6800 H       
  21 H21           -1.7820     2.0498    -0.9820 H       
  22 H22           -2.0208     1.5667     0.7116 H       
@<TRIPOS>BOND
   1    1    6 ar
   2    1    2 ar
   3    1   12 1
   4    2    3 ar
   5    2   11 1
   6    3    4 ar
   7    3   13 1
   8    4    5 ar
   9    4    7 1
  10    5    6 ar
  11    5   14 1
  12    6   15 1
  13    7    8 3
  14    9   10 1
  15    9   12 1
  16    9   16 1
  17   10   11 1
  18   10   17 1
  19   10   18 1
  20   11   19 1
  21   11   20 1
  22   12   21 1
  23   12   22 1

#	End of record

