#	Name: ASD01812077
#	Creating user name:	WinNT
#	Creation time:	15. 06. 2019 19:27

#	Modifying user name:	WinNT
#	Modification time:	15. 06. 2019 19:27

#	Program:	/corina/corina34_cracker 3.40 0067  02.08.2006

@<TRIPOS>MOLECULE
ASD01812077
  48   51    0    0    0
SMALL
NO_CHARGES


@<TRIPOS>ATOM
   1 C1             0.0370     1.4721    -0.0879 C.ar    
   2 C2             0.0717     0.0866    -0.0606 C.ar    
   3 C3             1.2727    -0.5895    -0.0907 C.ar    
   4 C4             2.4695     0.1183    -0.1492 C.ar    
   5 C5             2.4349     1.5233    -0.1773 C.ar    
   6 C6             1.2112     2.1965    -0.1463 C.ar    
   7 N7             3.6760    -0.5477    -0.1788 N.pl3   
   8 C8             4.8540     0.0871    -0.2341 C.2     
   9 C9             4.9468     1.4637    -0.2659 C.2     
  10 C10            3.7092     2.2607    -0.2393 C.2     
  11 C11            3.6694    -2.0123    -0.1478 C.3     
  12 C12            3.6159    -2.5443    -1.5568 C.ar    
  13 O13            3.7375     3.4787    -0.2658 O.2     
  14 C14            6.2589     2.1229    -0.3261 C.2     
  15 O15            6.3364     3.4684    -0.3566 O.3     
  16 O16            7.2743     1.4549    -0.3484 O.2     
  17 F17            1.1767     3.5468    -0.1733 F       
  18 C18            4.7877    -2.7945    -2.2458 C.ar    
  19 C19            4.7395    -3.2796    -3.5377 C.ar    
  20 C20            3.5152    -3.5195    -4.1547 C.ar    
  21 C21            2.3369    -3.2733    -3.4598 C.ar    
  22 C22            2.3962    -2.7870    -2.1571 C.ar    
  23 N23            3.5263    -3.9972    -5.4699 N.3     
  24 C24            2.2413    -4.5929    -5.8523 C.3     
  25 C25            1.1247    -3.6105    -5.4777 C.3     
  26 N26            1.0740    -3.5074    -4.0151 N.3     
  27 C27            4.6286    -4.9460    -5.6761 C.3     
  28 C28            0.1143    -2.4786    -3.5928 C.3     
  29 H29           -0.9122     1.9869    -0.0678 H       
  30 H30           -0.8529    -0.4696    -0.0149 H       
  31 H31            1.2848    -1.6692    -0.0686 H       
  32 H32            5.7617    -0.4978    -0.2543 H       
  33 H33            4.5756    -2.3695     0.3412 H       
  34 H34            2.7969    -2.3601     0.4052 H       
  35 H35            7.2213     3.8563    -0.3961 H       
  36 H36            5.7413    -2.6101    -1.7736 H       
  37 H37            5.6574    -3.4736    -4.0728 H       
  38 H38            1.4828    -2.5906    -1.6154 H       
  39 H39            2.2257    -4.7743    -6.9270 H       
  40 H40            2.0984    -5.5324    -5.3184 H       
  41 H41            1.3367    -2.6317    -5.9080 H       
  42 H42            0.1700    -3.9786    -5.8535 H       
  43 H43            4.5511    -5.7562    -4.9510 H       
  44 H44            4.5721    -5.3548    -6.6850 H       
  45 H45            5.5804    -4.4312    -5.5454 H       
  46 H46           -0.8502    -2.6658    -4.0649 H       
  47 H47            0.0006    -2.5107    -2.5092 H       
  48 H48            0.4802    -1.4961    -3.8908 H       
@<TRIPOS>BOND
   1    1    2 ar
   2    1    6 ar
   3    1   29 1
   4    2    3 ar
   5    2   30 1
   6    3    4 ar
   7    3   31 1
   8    4    5 ar
   9    4    7 1
  10    5    6 ar
  11    5   10 1
  12    6   17 1
  13    7    8 1
  14    7   11 1
  15    8    9 2
  16    8   32 1
  17    9   10 1
  18    9   14 1
  19   10   13 2
  20   11   12 1
  21   11   33 1
  22   11   34 1
  23   12   18 ar
  24   12   22 ar
  25   14   15 1
  26   14   16 2
  27   15   35 1
  28   18   19 ar
  29   18   36 1
  30   19   20 ar
  31   19   37 1
  32   20   21 ar
  33   20   23 1
  34   21   22 ar
  35   21   26 1
  36   22   38 1
  37   23   24 1
  38   23   27 1
  39   24   25 1
  40   24   39 1
  41   24   40 1
  42   25   26 1
  43   25   41 1
  44   25   42 1
  45   26   28 1
  46   27   43 1
  47   27   44 1
  48   27   45 1
  49   28   46 1
  50   28   47 1
  51   28   48 1

#	End of record

