#	Name: ASD01913569
#	Creating user name:	WinNT
#	Creation time:	15. 06. 2019 20:01

#	Modifying user name:	WinNT
#	Modification time:	15. 06. 2019 20:01

#	Program:	/corina/corina34_cracker 3.40 0067  02.08.2006

@<TRIPOS>MOLECULE
ASD01913569
  37   39    0    0    0
SMALL
NO_CHARGES


@<TRIPOS>ATOM
   1 C1            -0.1221     1.3549    -0.8777 C.ar    
   2 C2            -0.1840    -0.0358    -0.9213 C.ar    
   3 C3             0.4367    -0.6904    -1.9826 C.ar    
   4 N4             1.0577     0.0272    -2.9038 N.ar    
   5 C5             1.0938     1.3425    -2.8266 C.ar    
   6 N6             0.5191     1.9989    -1.8387 N.ar    
   7 C7            -0.9130    -2.1452     0.0054 C.ar    
   8 C8             0.2314    -2.9210     0.1830 C.ar    
   9 C9             0.1317    -4.2984     0.1138 C.ar    
  10 N10           -1.0245    -4.8836    -0.1170 N.ar    
  11 C11           -2.1409    -4.1847    -0.2925 C.ar    
  12 C12           -2.1229    -2.7957    -0.2371 C.ar    
  13 C13           -3.4167    -4.8923    -0.5495 C.2     
  14 N14           -3.4414    -6.2387    -0.6044 N.am    
  15 N15           -0.8511    -0.7558     0.0741 N.pl3   
  16 O16           -4.4411    -4.2587    -0.7107 O.2     
  17 C17           -4.6564    -6.9086    -0.7411 C.ar    
  18 C18           -1.4849    -0.0486     1.1895 C.3     
  19 C19           -4.6871    -8.2970    -0.6813 C.ar    
  20 C20           -5.8993    -8.9505    -0.8178 C.ar    
  21 C21           -7.0451    -8.1881    -1.0105 C.ar    
  22 C22           -6.9397    -6.8097    -1.0595 C.ar    
  23 N23           -5.7699    -6.2160    -0.9209 N.ar    
  24 F24           -8.2484    -8.7864    -1.1488 F       
  25 H25           -0.5945     1.8996    -0.0736 H       
  26 H26            0.4114    -1.7678    -2.0521 H       
  27 H27            1.6098     1.8987    -3.5952 H       
  28 H28            1.1854    -2.4515     0.3722 H       
  29 H29            1.0159    -4.9032     0.2508 H       
  30 H30           -3.0313    -2.2293    -0.3795 H       
  31 H31           -2.6138    -6.7416    -0.5489 H       
  32 H32           -2.5154     0.1924     0.9284 H       
  33 H33           -1.4736    -0.6832     2.0756 H       
  34 H34           -0.9374     0.8714     1.3945 H       
  35 H35           -3.7768    -8.8584    -0.5307 H       
  36 H36           -5.9536   -10.0284    -0.7760 H       
  37 H37           -7.8267    -6.2120    -1.2093 H       
@<TRIPOS>BOND
   1    1    2 ar
   2    1    6 ar
   3    1   25 1
   4    2    3 ar
   5    2   15 1
   6    3    4 ar
   7    3   26 1
   8    4    5 ar
   9    5    6 ar
  10    5   27 1
  11    7    8 ar
  12    7   12 ar
  13    7   15 1
  14    8    9 ar
  15    8   28 1
  16    9   10 ar
  17    9   29 1
  18   10   11 ar
  19   11   12 ar
  20   11   13 1
  21   12   30 1
  22   13   14 am
  23   13   16 2
  24   14   17 1
  25   14   31 1
  26   15   18 1
  27   17   19 ar
  28   17   23 ar
  29   18   32 1
  30   18   33 1
  31   18   34 1
  32   19   20 ar
  33   19   35 1
  34   20   21 ar
  35   20   36 1
  36   21   22 ar
  37   21   24 1
  38   22   23 ar
  39   22   37 1

#	End of record

