#	Name: ASD01913548
#	Creating user name:	WinNT
#	Creation time:	15. 06. 2019 20:01

#	Modifying user name:	WinNT
#	Modification time:	15. 06. 2019 20:01

#	Program:	/corina/corina34_cracker 3.40 0067  02.08.2006

@<TRIPOS>MOLECULE
ASD01913548
  34   36    0    0    0
SMALL
NO_CHARGES


@<TRIPOS>ATOM
   1 C1             0.8692     0.2447    -0.9902 C.ar    
   2 C2             0.1064    -0.0148     0.1439 C.ar    
   3 C3             0.5514     0.4455     1.3751 C.ar    
   4 N4             1.6797     1.1197     1.4732 N.ar    
   5 C5             2.4259     1.3824     0.4180 C.ar    
   6 C6             2.0488     0.9565    -0.8416 C.ar    
   7 C7            -0.9871    -2.0586    -0.0767 C.ar    
   8 C8             0.2438    -2.7079    -0.1095 C.ar    
   9 C9             0.2792    -4.0856    -0.2311 C.ar    
  10 N10           -0.8311    -4.7867    -0.3163 N.ar    
  11 C11           -2.0272    -4.2092    -0.2892 C.ar    
  12 C12           -2.1442    -2.8285    -0.1685 C.ar    
  13 C13           -3.2473    -5.0432    -0.3890 C.2     
  14 N14           -3.1410    -6.3816    -0.5066 N.am    
  15 O15           -1.0581    -0.7088     0.0474 O.3     
  16 C16           -4.2860    -7.1751    -0.4946 C.ar    
  17 O17           -4.3441    -4.5207    -0.3648 O.2     
  18 C18           -4.1643    -8.5600    -0.4991 C.ar    
  19 C19           -5.3099    -9.3363    -0.4870 C.ar    
  20 C20           -6.5423    -8.6980    -0.4708 C.ar    
  21 C21           -6.5889    -7.3176    -0.4673 C.ar    
  22 N22           -5.4799    -6.6034    -0.4736 N.ar    
  23 H23            0.5521    -0.1040    -1.9619 H       
  24 H24           -0.0330     0.2497     2.2620 H       
  25 H25            3.3441     1.9379     0.5398 H       
  26 H26            2.6660     1.1764    -1.7002 H       
  27 H27            1.1612    -2.1423    -0.0410 H       
  28 H28            1.2321    -4.5931    -0.2570 H       
  29 H29           -3.1173    -2.3606    -0.1466 H       
  30 H30           -2.2672    -6.7924    -0.5997 H       
  31 H31           -3.1890    -9.0237    -0.5122 H       
  32 H32           -5.2464   -10.4145    -0.4905 H       
  33 H33           -7.4554    -9.2748    -0.4615 H       
  34 H34           -7.5455    -6.8166    -0.4547 H       
@<TRIPOS>BOND
   1    1    2 ar
   2    1    6 ar
   3    1   23 1
   4    2    3 ar
   5    2   15 1
   6    3    4 ar
   7    3   24 1
   8    4    5 ar
   9    5    6 ar
  10    5   25 1
  11    6   26 1
  12    7    8 ar
  13    7   12 ar
  14    7   15 1
  15    8    9 ar
  16    8   27 1
  17    9   10 ar
  18    9   28 1
  19   10   11 ar
  20   11   12 ar
  21   11   13 1
  22   12   29 1
  23   13   14 am
  24   13   17 2
  25   14   16 1
  26   14   30 1
  27   16   18 ar
  28   16   22 ar
  29   18   19 ar
  30   18   31 1
  31   19   20 ar
  32   19   32 1
  33   20   21 ar
  34   20   33 1
  35   21   22 ar
  36   21   34 1

#	End of record

