#	Name: ASD01900104
#	Creating user name:	WinNT
#	Creation time:	15. 06. 2019 19:51

#	Modifying user name:	WinNT
#	Modification time:	15. 06. 2019 19:51

#	Program:	/corina/corina34_cracker 3.40 0067  02.08.2006

@<TRIPOS>MOLECULE
ASD01900104
  49   52    0    0    0
SMALL
NO_CHARGES


@<TRIPOS>ATOM
   1 C1            -0.0168     1.3890     0.0097 C.ar    
   2 C2             0.0021    -0.0041     0.0020 C.ar    
   3 C3             1.2224    -0.6606    -0.0131 C.ar    
   4 C4             2.3820     0.0992    -0.0201 C.ar    
   5 C5             2.2884     1.4815    -0.0118 C.ar    
   6 N6             1.1169     2.0792     0.0026 N.ar    
   7 C7            -1.3131     2.1060     0.0197 C.2     
   8 O8            -2.3544     1.4790     0.0212 O.2     
   9 N9            -1.3379     3.4535     0.0271 N.am    
  10 N10           -4.0732     5.7272     0.0534 N.am    
  11 N11           -4.7377     4.4942     0.0499 N.2     
  12 C12           -3.8404     3.5422     0.0399 C.2     
  13 C13           -2.5688     4.1343     0.0366 C.2     
  14 C14           -2.7375     5.4816     0.0451 C.2     
  15 S15           -4.7895     7.2203     0.0593 S.o2    
  16 O16           -3.8372     8.1244    -0.4836 O.2     
  17 O17           -6.0907     7.0433    -0.4837 O.2     
  18 C18           -7.5590     7.4139     5.7754 C.3     
  19 C19           -6.9903     8.7614     6.2383 C.3     
  20 C20           -5.5141     8.8229     5.8382 C.3     
  21 C21           -5.3616     8.4132     4.3953 C.ar    
  22 C22           -4.1954     8.7476     3.7271 C.ar    
  23 C23           -4.0206     8.3855     2.4059 C.ar    
  24 C24           -5.0126     7.6851     1.7442 C.ar    
  25 C25           -6.1768     7.3500     2.4044 C.ar    
  26 C26           -6.3573     7.7153     3.7349 C.ar    
  27 O27           -7.5208     7.3754     4.3482 O.3     
  28 C28           -6.7118     6.2741     6.3446 C.3     
  29 C29           -9.0046     7.2722     6.2562 C.3     
  30 H30           -0.9212    -0.5644     0.0082 H       
  31 H31            1.2690    -1.7395    -0.0190 H       
  32 H32            3.3489    -0.3818    -0.0315 H       
  33 H33            3.1898     2.0764    -0.0168 H       
  34 H34           -0.5069     3.9539     0.0259 H       
  35 H35           -4.0440     2.4815     0.0350 H       
  36 H36           -1.9523     6.2231     0.0452 H       
  37 H37           -7.5352     9.5744     5.7586 H       
  38 H38           -7.0813     8.8460     7.3212 H       
  39 H39           -5.1455     9.8406     5.9671 H       
  40 H40           -4.9385     8.1465     6.4701 H       
  41 H41           -3.4192     9.2946     4.2416 H       
  42 H42           -3.1096     8.6495     1.8894 H       
  43 H43           -6.9507     6.8028     1.8867 H       
  44 H44           -6.7279     6.3182     7.4336 H       
  45 H45           -7.1188     5.3186     6.0137 H       
  46 H46           -5.6852     6.3734     5.9920 H       
  47 H47           -9.6065     8.0805     5.8409 H       
  48 H48           -9.4052     6.3139     5.9256 H       
  49 H49           -9.0319     7.3213     7.3448 H       
@<TRIPOS>BOND
   1    1    2 ar
   2    1    6 ar
   3    1    7 1
   4    2    3 ar
   5    2   30 1
   6    3    4 ar
   7    3   31 1
   8    4    5 ar
   9    4   32 1
  10    5    6 ar
  11    5   33 1
  12    7    8 2
  13    7    9 am
  14    9   13 1
  15    9   34 1
  16   10   11 1
  17   10   14 1
  18   10   15 am
  19   11   12 2
  20   12   13 1
  21   12   35 1
  22   13   14 2
  23   14   36 1
  24   15   16 2
  25   15   17 2
  26   15   24 1
  27   18   19 1
  28   18   27 1
  29   18   28 1
  30   18   29 1
  31   19   20 1
  32   19   37 1
  33   19   38 1
  34   20   21 1
  35   20   39 1
  36   20   40 1
  37   21   22 ar
  38   21   26 ar
  39   22   23 ar
  40   22   41 1
  41   23   24 ar
  42   23   42 1
  43   24   25 ar
  44   25   26 ar
  45   25   43 1
  46   26   27 1
  47   28   44 1
  48   28   45 1
  49   28   46 1
  50   29   47 1
  51   29   48 1
  52   29   49 1

#	End of record

