#	Name: ASD01910147
#	Creating user name:	WinNT
#	Creation time:	15. 06. 2019 19:55

#	Modifying user name:	WinNT
#	Modification time:	15. 06. 2019 19:55

#	Program:	/corina/corina34_cracker 3.40 0067  02.08.2006

@<TRIPOS>MOLECULE
ASD01910147
  54   57    0    0    0
SMALL
NO_CHARGES


@<TRIPOS>ATOM
   1 C1             0.6173    -0.0246    -0.1774 C.1     
   2 C2             0.5283    -1.1950    -0.1533 C.1     
   3 C3             0.7258     1.4030    -0.2069 C.ar    
   4 C4             0.4197    -2.6226    -0.1238 C.ar    
   5 C5             0.7570     2.1295     0.9863 C.ar    
   6 C6             0.8621     3.5042     0.9501 C.ar    
   7 C7             0.9367     4.1641    -0.2639 C.ar    
   8 C8             0.9064     3.4513    -1.4496 C.ar    
   9 C9             0.8069     2.0758    -1.4290 C.ar    
  10 C10            0.3886    -3.3491    -1.3170 C.ar    
  11 C11            0.2838    -4.7238    -1.2808 C.ar    
  12 C12            0.2097    -5.3837    -0.0667 C.ar    
  13 C13            0.2395    -4.6709     1.1190 C.ar    
  14 C14            0.3502    -3.2963     1.0985 C.ar    
  15 C15            0.0954    -6.8861    -0.0357 C.3     
  16 N16            1.3593    -7.4635     0.4408 N.3     
  17 N17           -0.9933    -7.2757     0.8703 N.3     
  18 C18           -1.2037    -8.7305     0.8460 C.3     
  19 C19           -2.3033    -9.0984     1.8458 C.3     
  20 O20           -3.4939    -8.3738     1.5254 O.3     
  21 C21           -3.3251    -6.9537     1.5403 C.3     
  22 C22           -2.2359    -6.5640     0.5375 C.3     
  23 C23            1.6052    -7.1065     1.8449 C.3     
  24 C24            2.8871    -7.7908     2.3255 C.3     
  25 N25            4.0104    -7.3739     1.4746 N.3     
  26 C26            3.7645    -7.7310     0.0705 C.3     
  27 C27            2.4826    -7.0467    -0.4101 C.3     
  28 H28            0.6985     1.6158     1.9345 H       
  29 H29            0.8860     4.0671     1.8715 H       
  30 H30            1.0186     5.2407    -0.2862 H       
  31 H31            0.9651     3.9730    -2.3935 H       
  32 H32            0.7834     1.5207    -2.3551 H       
  33 H33            0.4460    -2.8353    -2.2653 H       
  34 H34            0.2593    -5.2866    -2.2022 H       
  35 H35            0.1808    -5.1926     2.0628 H       
  36 H36            0.3734    -2.7412     2.0246 H       
  37 H37           -0.1172    -7.2551    -1.0390 H       
  38 H38           -1.5046    -9.0381    -0.1554 H       
  39 H39           -0.2782    -9.2368     1.1203 H       
  40 H40           -2.5025   -10.1686     1.7902 H       
  41 H41           -1.9799    -8.8397     2.8540 H       
  42 H42           -4.2633    -6.4727     1.2638 H       
  43 H43           -3.0314    -6.6325     2.5397 H       
  44 H44           -2.0638    -5.4888     0.5865 H       
  45 H45           -2.5533    -6.8370    -0.4689 H       
  46 H46            1.7157    -6.0255     1.9313 H       
  47 H47            0.7655    -7.4366     2.4565 H       
  48 H48            3.0871    -7.5042     3.3580 H       
  49 H49            2.7667    -8.8724     2.2648 H       
  50 H50            4.1893    -6.3855     1.5704 H       
  51 H51            4.6042    -7.4009    -0.5411 H       
  52 H52            3.6541    -8.8119    -0.0159 H       
  53 H53            2.2826    -7.3332    -1.4426 H       
  54 H54            2.6031    -5.9651    -0.3494 H       
@<TRIPOS>BOND
   1    1    2 3
   2    1    3 1
   3    2    4 1
   4    3    5 ar
   5    3    9 ar
   6    4   10 ar
   7    4   14 ar
   8    5    6 ar
   9    5   28 1
  10    6    7 ar
  11    6   29 1
  12    7    8 ar
  13    7   30 1
  14    8    9 ar
  15    8   31 1
  16    9   32 1
  17   10   11 ar
  18   10   33 1
  19   11   12 ar
  20   11   34 1
  21   12   13 ar
  22   12   15 1
  23   13   14 ar
  24   13   35 1
  25   14   36 1
  26   15   16 1
  27   15   17 1
  28   15   37 1
  29   16   23 1
  30   16   27 1
  31   17   18 1
  32   17   22 1
  33   18   19 1
  34   18   38 1
  35   18   39 1
  36   19   20 1
  37   19   40 1
  38   19   41 1
  39   20   21 1
  40   21   22 1
  41   21   42 1
  42   21   43 1
  43   22   44 1
  44   22   45 1
  45   23   24 1
  46   23   46 1
  47   23   47 1
  48   24   25 1
  49   24   48 1
  50   24   49 1
  51   25   26 1
  52   25   50 1
  53   26   27 1
  54   26   51 1
  55   26   52 1
  56   27   53 1
  57   27   54 1

#	End of record

