#	Name: ASD01910922
#	Creating user name:	WinNT
#	Creation time:	15. 06. 2019 19:56

#	Modifying user name:	WinNT
#	Modification time:	15. 06. 2019 19:56

#	Program:	/corina/corina34_cracker 3.40 0067  02.08.2006

@<TRIPOS>MOLECULE
ASD01910922
  51   54    0    0    0
SMALL
NO_CHARGES


@<TRIPOS>ATOM
   1 N1             0.3856     1.1976    -0.3488 N.am    
   2 C2             0.1583    -0.2385    -0.1348 C.3     
   3 C3            -0.4319    -0.4378     1.2667 C.3     
   4 N4            -1.5580     0.4908     1.4383 N.am    
   5 C5            -1.3308     1.9269     1.2243 C.3     
   6 C6            -0.7392     2.1268    -0.1717 C.3     
   7 C7            -2.7774     0.0335     1.7853 C.2     
   8 C8            -3.8698     0.9871     2.0752 C.ar    
   9 C9            -5.1602     0.7374     1.6030 C.ar    
  10 C10           -6.1823     1.6266     1.8723 C.ar    
  11 C11           -5.9371     2.7675     2.6092 C.ar    
  12 C12           -4.6498     3.0307     3.0880 C.ar    
  13 C13           -3.6149     2.1335     2.8246 C.ar    
  14 C14           -4.3962     4.2150     3.8521 C.1     
  15 O15           -2.9793    -1.1628     1.8601 O.2     
  16 C16           -4.1883     5.1859     4.4785 C.1     
  17 C17           -3.9346     6.3702     5.2425 C.ar    
  18 C18           -2.6526     6.6432     5.7258 C.ar    
  19 N19           -2.4202     7.7324     6.4283 N.ar    
  20 C20           -3.3740     8.6014     6.7029 C.ar    
  21 C21           -4.6703     8.4038     6.2611 C.ar    
  22 C22           -4.9671     7.2785     5.5136 C.ar    
  23 C23            1.6050     1.6549    -0.6958 C.2     
  24 C24            1.7911     3.0827    -1.0313 C.ar    
  25 C25            2.9948     3.7222    -0.7308 C.ar    
  26 C26            3.1621     5.0546    -1.0470 C.ar    
  27 C27            2.1398     5.7569    -1.6602 C.ar    
  28 C28            0.9442     5.1290    -1.9608 C.ar    
  29 C29            0.7659     3.7955    -1.6552 C.ar    
  30 O30            2.5517     0.8934    -0.7330 O.2     
  31 H31           -0.5402    -0.6138    -0.8827 H       
  32 H32            1.1044    -0.7742    -0.2128 H       
  33 H33           -0.7844    -1.4638     1.3727 H       
  34 H34            0.3306    -0.2309     2.0176 H       
  35 H35           -2.2769     2.4626     1.3023 H       
  36 H36           -0.6323     2.3022     1.9722 H       
  37 H37           -0.3872     3.1530    -0.2764 H       
  38 H38           -1.4999     1.9197    -0.9245 H       
  39 H39           -5.3595    -0.1532     1.0255 H       
  40 H40           -7.1780     1.4282     1.5042 H       
  41 H41           -6.7408     3.4585     2.8162 H       
  42 H42           -2.6187     2.3313     3.1917 H       
  43 H43           -1.8456     5.9550     5.5218 H       
  44 H44           -3.1391     9.4819     7.2826 H       
  45 H45           -5.4415     9.1231     6.4938 H       
  46 H46           -5.9704     7.0996     5.1561 H       
  47 H47            3.7932     3.1753    -0.2515 H       
  48 H48            4.0930     5.5506    -0.8150 H       
  49 H49            2.2757     6.8000    -1.9050 H       
  50 H50            0.1501     5.6828    -2.4395 H       
  51 H51           -0.1677     3.3064    -1.8906 H       
@<TRIPOS>BOND
   1    1    2 1
   2    1   23 am
   3    1    6 1
   4    2    3 1
   5    2   31 1
   6    2   32 1
   7    3    4 1
   8    3   33 1
   9    3   34 1
  10    4    5 1
  11    4    7 am
  12    5    6 1
  13    5   35 1
  14    5   36 1
  15    6   37 1
  16    6   38 1
  17    7    8 1
  18    7   15 2
  19    8    9 ar
  20    8   13 ar
  21    9   10 ar
  22    9   39 1
  23   10   11 ar
  24   10   40 1
  25   11   12 ar
  26   11   41 1
  27   12   13 ar
  28   12   14 1
  29   13   42 1
  30   14   16 3
  31   16   17 1
  32   17   18 ar
  33   17   22 ar
  34   18   19 ar
  35   18   43 1
  36   19   20 ar
  37   20   21 ar
  38   20   44 1
  39   21   22 ar
  40   21   45 1
  41   22   46 1
  42   23   24 1
  43   23   30 2
  44   24   25 ar
  45   24   29 ar
  46   25   26 ar
  47   25   47 1
  48   26   27 ar
  49   26   48 1
  50   27   28 ar
  51   27   49 1
  52   28   29 ar
  53   28   50 1
  54   29   51 1

#	End of record

