#	Name: ASD09116426
#	Creating user name:	WinNT
#	Creation time:	15. 06. 2019 21:21

#	Modifying user name:	WinNT
#	Modification time:	15. 06. 2019 21:21

#	Program:	/corina/corina34_cracker 3.40 0067  02.08.2006

@<TRIPOS>MOLECULE
ASD09116426
  71   77    0    0    0
SMALL
NO_CHARGES


@<TRIPOS>ATOM
   1 N1            -0.0337     1.4255     0.1804 N.2     
   2 N2            -0.0283     0.0302     0.3380 N.pl3   
   3 C3             1.2192     1.8120     0.1478 C.2     
   4 N4             2.0097     0.7399     0.2760 N.2     
   5 C5             1.2718    -0.3434     0.3918 C.2     
   6 N6             1.7411    -1.6345     0.5422 N.pl3   
   7 C7            -1.1429    -0.8061     0.4230 C.ar    
   8 N8             1.6572     3.1285     0.0026 N.pl3   
   9 C9             3.0195     3.4261     0.0968 C.ar    
  10 C10            3.5513     4.5189    -0.5758 C.ar    
  11 C11            3.8659     2.6341     0.8721 C.ar    
  12 C12            5.2060     2.9781     0.9264 C.ar    
  13 C13            5.6610     4.0697     0.2327 C.ar    
  14 N14            4.8350     4.8060    -0.4907 N.ar    
  15 N15           -1.0416    -2.0816     0.0805 N.ar    
  16 N16           -2.0389    -2.8911     0.1311 N.ar    
  17 C17           -3.2359    -2.4930     0.5310 C.ar    
  18 C18           -3.4325    -1.1686     0.9325 C.ar    
  19 C19           -2.3639    -0.2990     0.8747 C.ar    
  20 C20           -4.3994    -3.4099     0.5389 C.ar    
  21 C21           -5.5921    -2.9913    -0.0529 C.ar    
  22 C22           -5.6488    -1.6490    -0.7294 C.3     
  23 C23           -5.7509    -0.5163     0.2885 C.3     
  24 C24           -4.7764    -0.7367     1.4425 C.3     
  25 C25           -4.3182    -4.6674     1.1266 C.ar    
  26 C26           -5.4281    -5.4898     1.1378 C.ar    
  27 C27           -6.6143    -5.0630     0.5687 C.ar    
  28 C28           -6.6967    -3.8153    -0.0250 C.ar    
  29 C29            6.1619     2.1416     1.7497 C.3     
  30 C30            6.5794     2.9525     2.9795 C.3     
  31 C31            7.7517     3.8579     2.6567 C.3     
  32 C32            7.4266     4.9871     1.6991 C.3     
  33 C33            7.1270     4.4496     0.2982 C.3     
  34 N34            8.2505     4.4391     3.9102 N.3     
  35 C35            9.4674     5.2377     3.6749 C.3     
  36 C36            9.1892     6.6611     4.2019 C.3     
  37 C37            8.0386     6.4387     5.2186 C.3     
  38 C38            7.2303     5.3085     4.5340 C.3     
  39 H39            2.6958    -1.8034     0.5697 H       
  40 H40            1.1157    -2.3718     0.6202 H       
  41 H41            1.0162     3.8373    -0.1637 H       
  42 H42            2.9046     5.1413    -1.1766 H       
  43 H43            3.4879     1.7795     1.4135 H       
  44 H44           -2.4688     0.7371     1.1608 H       
  45 H45           -4.7469    -1.5120    -1.3259 H       
  46 H46           -6.5178    -1.6173    -1.3865 H       
  47 H47           -5.5184     0.4289    -0.2019 H       
  48 H48           -6.7674    -0.4762     0.6799 H       
  49 H49           -5.1730    -1.5066     2.1044 H       
  50 H50           -4.6661     0.1929     2.0009 H       
  51 H51           -3.3920    -4.9996     1.5719 H       
  52 H52           -5.3695    -6.4681     1.5914 H       
  53 H53           -7.4812    -5.7067     0.5879 H       
  54 H54           -7.6262    -3.4878    -0.4669 H       
  55 H55            5.6661     1.2242     2.0668 H       
  56 H56            7.0423     1.8990     1.1546 H       
  57 H57            5.7375     3.5605     3.3108 H       
  58 H58            6.8639     2.2692     3.7797 H       
  59 H59            8.5462     3.2525     2.2204 H       
  60 H60            6.5562     5.5297     2.0679 H       
  61 H61            8.2761     5.6680     1.6470 H       
  62 H62            7.7420     3.5709     0.1037 H       
  63 H63            7.3391     5.2202    -0.4430 H       
  64 H64           10.3079     4.8004     4.2139 H       
  65 H65            9.6868     5.2736     2.6078 H       
  66 H66           10.0700     7.0669     4.6995 H       
  67 H67            8.8668     7.3157     3.3922 H       
  68 H68            8.4275     6.1116     6.1829 H       
  69 H69            7.4347     7.3395     5.3281 H       
  70 H70            6.5682     5.7226     3.7735 H       
  71 H71            6.6570     4.7501     5.2741 H       
@<TRIPOS>BOND
   1    1    2 1
   2    1    3 2
   3    2    7 1
   4    2    5 1
   5    3    4 1
   6    3    8 1
   7    4    5 2
   8    5    6 1
   9    6   39 1
  10    6   40 1
  11    7   15 ar
  12    7   19 ar
  13    8    9 1
  14    8   41 1
  15    9   10 ar
  16    9   11 ar
  17   10   14 ar
  18   10   42 1
  19   11   12 ar
  20   11   43 1
  21   12   13 ar
  22   12   29 1
  23   13   14 ar
  24   13   33 1
  25   15   16 ar
  26   16   17 ar
  27   17   18 ar
  28   17   20 1
  29   18   19 ar
  30   18   24 1
  31   19   44 1
  32   20   21 ar
  33   20   25 ar
  34   21   22 1
  35   21   28 ar
  36   22   23 1
  37   22   45 1
  38   22   46 1
  39   23   24 1
  40   23   47 1
  41   23   48 1
  42   24   49 1
  43   24   50 1
  44   25   26 ar
  45   25   51 1
  46   26   27 ar
  47   26   52 1
  48   27   28 ar
  49   27   53 1
  50   28   54 1
  51   29   30 1
  52   29   55 1
  53   29   56 1
  54   30   31 1
  55   30   57 1
  56   30   58 1
  57   31   32 1
  58   31   34 1
  59   31   59 1
  60   32   33 1
  61   32   60 1
  62   32   61 1
  63   33   62 1
  64   33   63 1
  65   34   35 1
  66   34   38 1
  67   35   36 1
  68   35   64 1
  69   35   65 1
  70   36   37 1
  71   36   66 1
  72   36   67 1
  73   37   38 1
  74   37   68 1
  75   37   69 1
  76   38   70 1
  77   38   71 1

#	End of record

