#	Name: ASD01915442
#	Creating user name:	WinNT
#	Creation time:	15. 06. 2019 20:05

#	Modifying user name:	WinNT
#	Modification time:	15. 06. 2019 20:05

#	Program:	/corina/corina34_cracker 3.40 0067  02.08.2006

@<TRIPOS>MOLECULE
ASD01915442
  47   50    0    0    0
SMALL
NO_CHARGES


@<TRIPOS>ATOM
   1 N1             2.6278     1.4314     1.0615 N.pl3   
   2 N2             1.7714     0.5342     0.4134 N.2     
   3 C3             2.3706    -0.6109     0.2556 C.2     
   4 C4             3.6701    -0.5164     0.8022 C.ar    
   5 C5             3.8123     0.7909     1.3092 C.ar    
   6 N6             4.9446     1.1719     1.8875 N.ar    
   7 C7             4.7455    -1.4218     0.9158 C.ar    
   8 C8             5.9225    -0.9697     1.5377 C.ar    
   9 C9             5.9769     0.3570     2.0139 C.ar    
  10 C10            7.0491    -1.8415     1.6835 C.1     
  11 N11            7.9428    -2.5331     1.7992 N.1     
  12 C12            7.2124     0.8444     2.6696 C.ar    
  13 C13            7.6167     2.1690     2.5049 C.ar    
  14 C14            8.7686     2.6171     3.1182 C.ar    
  15 C15            9.5222     1.7553     3.8949 C.ar    
  16 C16            9.1266     0.4401     4.0617 C.ar    
  17 C17            7.9731    -0.0180     3.4588 C.ar    
  18 C18            4.6382    -2.8032     0.3977 C.ar    
  19 C19            5.2484    -3.1483    -0.8092 C.ar    
  20 C20            5.1449    -4.4385    -1.2866 C.ar    
  21 C21            4.4378    -5.3892    -0.5721 C.ar    
  22 C22            3.8303    -5.0534     0.6248 C.ar    
  23 C23            3.9313    -3.7684     1.1164 C.ar    
  24 C24            1.7779    -1.8317    -0.3997 C.3     
  25 C25            0.4294    -1.4705    -1.0256 C.3     
  26 C26            2.7265    -2.3372    -1.4886 C.3     
  27 C27            1.5763    -2.9267     0.6496 C.3     
  28 H28            2.4196     2.3503     1.2919 H       
  29 H29            7.0295     2.8425     1.8982 H       
  30 H30            9.0827     3.6426     2.9914 H       
  31 H31           10.4233     2.1105     4.3727 H       
  32 H32            9.7195    -0.2281     4.6686 H       
  33 H33            7.6626    -1.0436     3.5937 H       
  34 H34            5.7999    -2.4070    -1.3682 H       
  35 H35            5.6166    -4.7069    -2.2204 H       
  36 H36            4.3596    -6.3978    -0.9504 H       
  37 H37            3.2792    -5.8000     1.1774 H       
  38 H38            3.4604    -3.5086     2.0530 H       
  39 H39            0.5730    -0.6904    -1.7732 H       
  40 H40            0.0007    -2.3534    -1.4996 H       
  41 H41           -0.2464    -1.1103    -0.2499 H       
  42 H42            3.7443    -2.0217    -1.2590 H       
  43 H43            2.6842    -3.4256    -1.5306 H       
  44 H44            2.4268    -1.9245    -2.4519 H       
  45 H45            0.5589    -2.8753     1.0375 H       
  46 H46            1.7422    -3.9024     0.1931 H       
  47 H47            2.2840    -2.7824     1.4660 H       
@<TRIPOS>BOND
   1    1    2 1
   2    1    5 1
   3    1   28 1
   4    2    3 2
   5    3    4 1
   6    3   24 1
   7    4    7 ar
   8    4    5 ar
   9    5    6 ar
  10    6    9 ar
  11    7    8 ar
  12    7   18 1
  13    8    9 ar
  14    8   10 1
  15    9   12 1
  16   10   11 3
  17   12   13 ar
  18   12   17 ar
  19   13   14 ar
  20   13   29 1
  21   14   15 ar
  22   14   30 1
  23   15   16 ar
  24   15   31 1
  25   16   17 ar
  26   16   32 1
  27   17   33 1
  28   18   19 ar
  29   18   23 ar
  30   19   20 ar
  31   19   34 1
  32   20   21 ar
  33   20   35 1
  34   21   22 ar
  35   21   36 1
  36   22   23 ar
  37   22   37 1
  38   23   38 1
  39   24   25 1
  40   24   26 1
  41   24   27 1
  42   25   39 1
  43   25   40 1
  44   25   41 1
  45   26   42 1
  46   26   43 1
  47   26   44 1
  48   27   45 1
  49   27   46 1
  50   27   47 1

#	End of record

