#	Name: ASD02398001
#	Creating user name:	WinNT
#	Creation time:	15. 06. 2019 20:20

#	Modifying user name:	WinNT
#	Modification time:	15. 06. 2019 20:20

#	Program:	/corina/corina34_cracker 3.40 0067  02.08.2006

@<TRIPOS>MOLECULE
ASD02398001
  48   50    0    0    0
SMALL
NO_CHARGES


@<TRIPOS>ATOM
   1 C1            -0.0169     1.3942     0.0097 C.ar    
   2 C2             0.0021    -0.0041     0.0020 C.ar    
   3 C3            -1.1981    -0.7105     0.0102 C.ar    
   4 C4            -2.3984    -0.0289     0.0258 C.ar    
   5 C5            -2.4141     1.3545     0.0333 C.ar    
   6 C6            -1.2286     2.0654     0.0307 C.ar    
   7 C7            -3.6965    -0.7944     0.0341 C.3     
   8 C8            -4.1153    -1.0577     1.4576 C.2     
   9 O9            -3.4300    -0.6641     2.3716 O.2     
  10 C10            1.2946    -0.7315    -0.0152 C.ar    
  11 C11            1.6429    -1.5125    -1.1154 C.ar    
  12 C12            2.8472    -2.1869    -1.1263 C.ar    
  13 C13            3.7073    -2.0889    -0.0477 C.ar    
  14 C14            3.3665    -1.3153     1.0475 C.ar    
  15 C15            2.1679    -0.6318     1.0665 C.ar    
  16 C16            1.7983     0.2109     2.2600 C.3     
  17 C17            0.9263    -0.6092     3.2129 C.3     
  18 C18            1.7254    -1.7468     3.8107 C.2     
  19 O19            1.8214    -1.5863     5.1382 O.3     
  20 C20            0.7603    -0.7039     5.6097 C.3     
  21 C21            0.4965     0.2503     4.4226 C.3     
  22 O22           -5.2496    -1.7295     1.7101 O.3     
  23 O23            2.2050    -2.6626     3.1852 O.2     
  24 O24            1.1487     2.0917     0.0023 O.3     
  25 C25            1.0517     3.5174     0.0109 C.3     
  26 C26            5.0205    -2.8280    -0.0652 C.3     
  27 F27            5.1412    -3.5361    -1.2657 F       
  28 F28            6.0725    -1.9122     0.0438 F       
  29 F29            5.0670    -3.7218     1.0101 F       
  30 H30           -1.1897    -1.7904     0.0039 H       
  31 H31           -3.3568     1.8813     0.0452 H       
  32 H32           -1.2472     3.1452     0.0369 H       
  33 H33           -4.4665    -0.2095    -0.4689 H       
  34 H34           -3.5624    -1.7426    -0.4865 H       
  35 H35            0.9716    -1.5903    -1.9579 H       
  36 H36            3.1182    -2.7925    -1.9784 H       
  37 H37            4.0417    -1.2429     1.8873 H       
  38 H38            2.7046     0.5259     2.7770 H       
  39 H39            1.2457     1.0895     1.9272 H       
  40 H40            0.0515    -0.9943     2.6891 H       
  41 H41           -0.1364    -1.2779     5.8432 H       
  42 H42            1.0921    -0.1424     6.4830 H       
  43 H43            1.1122     1.1464     4.5006 H       
  44 H44           -0.5606     0.5085     4.3595 H       
  45 H45           -5.4767    -1.8741     2.6389 H       
  46 H46            2.0522     3.9498     0.0037 H       
  47 H47            0.5059     3.8497    -0.8721 H       
  48 H48            0.5228     3.8402     0.9077 H       
@<TRIPOS>BOND
   1    1    2 ar
   2    1   24 1
   3    1    6 ar
   4    2    3 ar
   5    2   10 1
   6    3    4 ar
   7    3   30 1
   8    4    5 ar
   9    4    7 1
  10    5    6 ar
  11    5   31 1
  12    6   32 1
  13    7    8 1
  14    7   33 1
  15    7   34 1
  16    8    9 2
  17    8   22 1
  18   10   11 ar
  19   10   15 ar
  20   11   12 ar
  21   11   35 1
  22   12   13 ar
  23   12   36 1
  24   13   14 ar
  25   13   26 1
  26   14   15 ar
  27   14   37 1
  28   15   16 1
  29   16   17 1
  30   16   38 1
  31   16   39 1
  32   17   18 1
  33   17   21 1
  34   17   40 1
  35   18   19 1
  36   18   23 2
  37   19   20 1
  38   20   21 1
  39   20   41 1
  40   20   42 1
  41   21   43 1
  42   21   44 1
  43   22   45 1
  44   24   25 1
  45   25   46 1
  46   25   47 1
  47   25   48 1
  48   26   27 1
  49   26   28 1
  50   26   29 1

#	End of record

