#	Name: ASD01914690
#	Creating user name:	WinNT
#	Creation time:	15. 06. 2019 20:04

#	Modifying user name:	WinNT
#	Modification time:	15. 06. 2019 20:04

#	Program:	/corina/corina34_cracker 3.40 0067  02.08.2006

@<TRIPOS>MOLECULE
ASD01914690
  41   44    0    0    0
SMALL
NO_CHARGES


@<TRIPOS>ATOM
   1 C1            -0.0169     1.3932     0.0097 C.ar    
   2 C2             0.0021    -0.0041     0.0020 C.ar    
   3 C3             1.2378    -0.6637    -0.0133 C.ar    
   4 C4             2.3912     0.1041    -0.0202 C.ar    
   5 C5             2.2856     1.4857    -0.0117 C.ar    
   6 N6             1.1071     2.0786     0.0027 N.ar    
   7 C7            -1.2209    -0.7489     0.0101 C.1     
   8 C8            -2.2236    -1.3596     0.0168 C.1     
   9 C9            -3.4466    -2.1045     0.0249 C.ar    
  10 C10           -3.4279    -3.5014     0.0172 C.ar    
  11 N11           -4.5530    -4.1856     0.0247 N.ar    
  12 C12           -5.7304    -3.5908     0.0395 C.ar    
  13 C13           -5.8345    -2.2110     0.0475 C.ar    
  14 C14           -4.6830    -1.4448     0.0465 C.ar    
  15 C15           -7.1887    -1.5500     0.0639 C.3     
  16 C16           -7.7713    -1.5448     1.4904 C.3     
  17 O17           -8.9961    -2.3253     1.3740 O.3     
  18 C18           -9.1441    -2.7372     0.1099 C.2     
  19 N19           -8.1593    -2.3411    -0.7080 N.am    
  20 O20          -10.0853    -3.4093    -0.2626 O.2     
  21 C21           -8.0817    -0.1369     1.9292 C.ar    
  22 C22           -7.1578     0.5747     2.6710 C.ar    
  23 C23           -7.4420     1.8684     3.0747 C.ar    
  24 C24           -8.6518     2.4489     2.7352 C.ar    
  25 C25           -9.5764     1.7352     1.9923 C.ar    
  26 C26           -9.2877     0.4436     1.5848 C.ar    
  27 F27            3.6056    -0.4878    -0.0345 F       
  28 F28           -6.5389     2.5637     3.8002 F       
  29 F29          -10.7578     2.3003     1.6605 F       
  30 H30           -0.9621     1.9156     0.0170 H       
  31 H31            1.2901    -1.7424    -0.0192 H       
  32 H32            3.1827     2.0870    -0.0171 H       
  33 H33           -2.4831    -4.0243     0.0048 H       
  34 H34           -6.6283    -4.1909     0.0451 H       
  35 H35           -4.7353    -0.3661     0.0530 H       
  36 H36           -7.1225    -0.5344    -0.3263 H       
  37 H37           -7.0803    -2.0196     2.1870 H       
  38 H38           -8.0965    -2.5433    -1.6546 H       
  39 H39           -6.2141     0.1215     2.9361 H       
  40 H40           -8.8745     3.4577     3.0500 H       
  41 H41          -10.0089    -0.1134     1.0051 H       
@<TRIPOS>BOND
   1    1    2 ar
   2    1    6 ar
   3    1   30 1
   4    2    3 ar
   5    2    7 1
   6    3    4 ar
   7    3   31 1
   8    4    5 ar
   9    4   27 1
  10    5    6 ar
  11    5   32 1
  12    7    8 3
  13    8    9 1
  14    9   10 ar
  15    9   14 ar
  16   10   11 ar
  17   10   33 1
  18   11   12 ar
  19   12   13 ar
  20   12   34 1
  21   13   14 ar
  22   13   15 1
  23   14   35 1
  24   15   16 1
  25   15   19 1
  26   15   36 1
  27   16   17 1
  28   16   21 1
  29   16   37 1
  30   17   18 1
  31   18   19 am
  32   18   20 2
  33   19   38 1
  34   21   22 ar
  35   21   26 ar
  36   22   23 ar
  37   22   39 1
  38   23   24 ar
  39   23   28 1
  40   24   25 ar
  41   24   40 1
  42   25   26 ar
  43   25   29 1
  44   26   41 1

#	End of record

