#	Name: ASD02398028
#	Creating user name:	WinNT
#	Creation time:	15. 06. 2019 20:20

#	Modifying user name:	WinNT
#	Modification time:	15. 06. 2019 20:20

#	Program:	/corina/corina34_cracker 3.40 0067  02.08.2006

@<TRIPOS>MOLECULE
ASD02398028
  63   66    0    0    0
SMALL
NO_CHARGES


@<TRIPOS>ATOM
   1 C1            -0.8182     1.0155     0.3462 C.ar    
   2 C2            -0.4026    -0.3192     0.3086 C.ar    
   3 C3            -1.3201    -1.3350     0.5647 C.ar    
   4 C4            -2.6329    -1.0207     0.8539 C.ar    
   5 C5            -3.0411     0.3006     0.8904 C.ar    
   6 C6            -2.1374     1.3169     0.6430 C.ar    
   7 C7            -3.6249    -2.1209     1.1304 C.3     
   8 C8            -3.5579    -2.5035     2.5865 C.2     
   9 O9            -2.7210    -2.0080     3.3034 O.2     
  10 O10           -4.4278    -3.3949     3.0869 O.3     
  11 C11            1.0090    -0.6514    -0.0031 C.ar    
  12 C12            2.0222    -0.3078     0.8903 C.ar    
  13 C13            1.3265    -1.3133    -1.1875 C.ar    
  14 C14            2.6418    -1.6204    -1.4722 C.ar    
  15 C15            3.6436    -1.2724    -0.5845 C.ar    
  16 C16            3.3336    -0.6198     0.5953 C.ar    
  17 C17            1.6862     0.4035     2.1757 C.3     
  18 N18            2.8901     0.5108     3.0035 N.am    
  19 C19            3.8190     1.4717     2.9072 C.2     
  20 O20            4.8232     1.3431     3.7815 O.3     
  21 C21            4.6028     0.1609     4.6041 C.3     
  22 C22            3.2731    -0.4152     4.0804 C.3     
  23 O23            3.7552     2.3770     2.0991 O.2     
  24 C24            3.4812    -1.8236     3.5200 C.3     
  25 C25            5.7231    -0.8295     4.4167 C.ar    
  26 C26            6.1314    -1.6195     5.4750 C.ar    
  27 C27            6.3386    -0.9519     3.1850 C.ar    
  28 C28            7.3662    -1.8604     3.0131 C.ar    
  29 C29            7.7786    -2.6461     4.0731 C.ar    
  30 C30            7.1591    -2.5279     5.3031 C.ar    
  31 O31            0.0698     2.0132     0.0982 O.3     
  32 C32           -0.4264     3.3521     0.1542 C.3     
  33 C33            0.7100     4.3303    -0.1502 C.3     
  34 C34            5.0776    -1.6109    -0.9008 C.3     
  35 F35            5.1405    -2.2685    -2.1340 F       
  36 F36            5.8322    -0.4343    -0.9607 F       
  37 F37            5.5915    -2.4440     0.0988 F       
  38 H38           -1.0051    -2.3677     0.5368 H       
  39 H39           -4.0696     0.5394     1.1174 H       
  40 H40           -2.4620     2.3465     0.6729 H       
  41 H41           -4.6298    -1.7723     0.8922 H       
  42 H42           -3.3860    -2.9885     0.5154 H       
  43 H43           -4.3457    -3.6087     4.0264 H       
  44 H44            0.5449    -1.5859    -1.8812 H       
  45 H45            2.8889    -2.1337    -2.3897 H       
  46 H46            4.1200    -0.3504     1.2849 H       
  47 H47            1.3096     1.4014     1.9510 H       
  48 H48            0.9240    -0.1598     2.7141 H       
  49 H49            4.5082     0.4382     5.6540 H       
  50 H50            2.5219    -0.4235     4.8701 H       
  51 H51            3.8954    -2.4662     4.2969 H       
  52 H52            2.5251    -2.2269     3.1863 H       
  53 H53            4.1715    -1.7810     2.6774 H       
  54 H54            5.6478    -1.5267     6.4362 H       
  55 H55            6.0163    -0.3380     2.3569 H       
  56 H56            7.8466    -1.9565     2.0507 H       
  57 H57            8.5812    -3.3561     3.9387 H       
  58 H58            7.4813    -3.1418     6.1312 H       
  59 H59           -1.2200     3.4765    -0.5825 H       
  60 H60           -0.8208     3.5520     1.1505 H       
  61 H61            0.3315     5.3515    -0.1074 H       
  62 H62            1.5036     4.2058     0.5866 H       
  63 H63            1.1044     4.1303    -1.1464 H       
@<TRIPOS>BOND
   1    1    2 ar
   2    1   31 1
   3    1    6 ar
   4    2    3 ar
   5    2   11 1
   6    3    4 ar
   7    3   38 1
   8    4    5 ar
   9    4    7 1
  10    5    6 ar
  11    5   39 1
  12    6   40 1
  13    7    8 1
  14    7   41 1
  15    7   42 1
  16    8    9 2
  17    8   10 1
  18   10   43 1
  19   11   12 ar
  20   11   13 ar
  21   12   17 1
  22   12   16 ar
  23   13   14 ar
  24   13   44 1
  25   14   15 ar
  26   14   45 1
  27   15   16 ar
  28   15   34 1
  29   16   46 1
  30   17   18 1
  31   17   47 1
  32   17   48 1
  33   18   19 am
  34   18   22 1
  35   19   20 1
  36   19   23 2
  37   20   21 1
  38   21   22 1
  39   21   25 1
  40   21   49 1
  41   22   24 1
  42   22   50 1
  43   24   51 1
  44   24   52 1
  45   24   53 1
  46   25   26 ar
  47   25   27 ar
  48   26   30 ar
  49   26   54 1
  50   27   28 ar
  51   27   55 1
  52   28   29 ar
  53   28   56 1
  54   29   30 ar
  55   29   57 1
  56   30   58 1
  57   31   32 1
  58   32   33 1
  59   32   59 1
  60   32   60 1
  61   33   61 1
  62   33   62 1
  63   33   63 1
  64   34   35 1
  65   34   36 1
  66   34   37 1

#	End of record

