#	Name: ASD01209170
#	Creating user name:	WinNT
#	Creation time:	15. 06. 2019 19:11

#	Modifying user name:	WinNT
#	Modification time:	15. 06. 2019 19:11

#	Program:	/corina/corina34_cracker 3.40 0067  02.08.2006

@<TRIPOS>MOLECULE
ASD01209170
  69   70    0    0    0
SMALL
NO_CHARGES


@<TRIPOS>ATOM
   1 O1            -0.0472     1.4626    -0.0050 O.3     
   2 O2             2.1134     2.1022     1.3496 O.3     
   3 C3             8.5153     9.3204     2.7629 C.ar    
   4 C4             8.1972     9.1774     4.1055 C.ar    
   5 C5             7.0738     8.4559     4.4834 C.ar    
   6 C6             6.2647     7.8759     3.5207 C.ar    
   7 C7             6.5811     8.0172     2.1689 C.ar    
   8 C8             7.7086     8.7480     1.7931 C.ar    
   9 O9             6.7672     8.3181     5.8003 O.3     
  10 C10            5.7210     7.3990     1.1378 C.2     
  11 N11            4.6294     6.6977     1.5027 N.am    
  12 O12            5.9982     7.5232    -0.0393 O.2     
  13 C13            3.8213     6.1168     0.5339 C.2     
  14 P14            1.2931     2.3545    -0.0126 P.3     
  15 O15            2.1320     1.9744    -1.1712 O.2     
  16 C16            0.8487     4.1181    -0.1367 C.3     
  17 N17            2.7524     5.4243     0.7761 N.2     
  18 S18            4.0872     6.2171    -1.1520 S.3     
  19 C19            2.6468     5.2467    -1.4476 C.2     
  20 C20            2.1024     4.9441    -0.2675 C.2     
  21 C21           -0.0314     0.0337    -0.0213 C.3     
  22 C22           -1.4680    -0.4924    -0.0082 C.3     
  23 C23            2.6931     0.8403     1.6867 C.3     
  24 C24            3.3963     0.9477     3.0413 C.3     
  25 O25            9.6170    10.0278     2.3983 O.3     
  26 C26            9.9523    10.0360     1.0092 C.3     
  27 C27           11.4500    10.3036     0.8476 C.3     
  28 C28            9.1584    11.1346     0.2994 C.3     
  29 O29           11.7523    11.6189     1.3172 O.3     
  30 C30            7.6449     8.9421     6.7395 C.3     
  31 C31            7.1415     8.6797     8.1603 C.3     
  32 S32            8.2557     9.4719     9.3526 S.o2    
  33 O33            9.5237     8.8346     9.2799 O.2     
  34 O34            8.1761    10.8802     9.1801 O.2     
  35 C35           13.1330    11.9713     1.2103 C.3     
  36 C36            7.4809     9.0387    10.9346 C.3     
  37 H37            8.8258     9.6287     4.8589 H       
  38 H38            5.3908     7.3142     3.8158 H       
  39 H39            7.9571     8.8598     0.7481 H       
  40 H40            4.4083     6.5986     2.4419 H       
  41 H41            0.2184     4.2733    -1.0123 H       
  42 H42            0.3065     4.4201     0.7594 H       
  43 H43            2.2685     4.9515    -2.4151 H       
  44 H44            0.4746    -0.3137    -0.9220 H       
  45 H45            0.4982    -0.3338     0.8577 H       
  46 H46           -1.4560    -1.5823    -0.0207 H       
  47 H47           -1.9740    -0.1449     0.8925 H       
  48 H48           -1.9976    -0.1248    -0.8872 H       
  49 H49            1.9100     0.0842     1.7428 H       
  50 H50            3.4173     0.5575     0.9228 H       
  51 H51            2.6720     1.2306     3.8052 H       
  52 H52            3.8384    -0.0148     3.2985 H       
  53 H53            4.1793     1.7039     2.9852 H       
  54 H54            9.7065     9.0690     0.5704 H       
  55 H55           12.0142     9.5725     1.4266 H       
  56 H56           11.7222    10.2220    -0.2047 H       
  57 H57            9.4141    11.1409    -0.7602 H       
  58 H58            8.0914    10.9440     0.4145 H       
  59 H59            9.4041    12.1017     0.7382 H       
  60 H60            8.6482     8.5310     6.6279 H       
  61 H61            7.6699    10.0162     6.5554 H       
  62 H62            6.1382     9.0909     8.2719 H       
  63 H63            7.1165     7.6057     8.3444 H       
  64 H64           13.2799    12.9835     1.5870 H       
  65 H65           13.7322    11.2748     1.7968 H       
  66 H66           13.4401    11.9243     0.1655 H       
  67 H67            7.4460     7.9541    11.0371 H       
  68 H68            8.0635     9.4624    11.7526 H       
  69 H69            6.4676     9.4393    10.9646 H       
@<TRIPOS>BOND
   1    1   21 1
   2    1   14 1
   3    2   23 1
   4    2   14 1
   5    3    4 ar
   6    3   25 1
   7    3    8 ar
   8    4    5 ar
   9    4   37 1
  10    5    6 ar
  11    5    9 1
  12    6    7 ar
  13    6   38 1
  14    7    8 ar
  15    7   10 1
  16    8   39 1
  17    9   30 1
  18   10   11 am
  19   10   12 2
  20   11   13 1
  21   11   40 1
  22   13   17 2
  23   13   18 1
  24   14   15 2
  25   14   16 1
  26   16   20 1
  27   16   41 1
  28   16   42 1
  29   17   20 1
  30   18   19 1
  31   19   20 2
  32   19   43 1
  33   21   22 1
  34   21   44 1
  35   21   45 1
  36   22   46 1
  37   22   47 1
  38   22   48 1
  39   23   24 1
  40   23   49 1
  41   23   50 1
  42   24   51 1
  43   24   52 1
  44   24   53 1
  45   25   26 1
  46   26   27 1
  47   26   28 1
  48   26   54 1
  49   27   29 1
  50   27   55 1
  51   27   56 1
  52   28   57 1
  53   28   58 1
  54   28   59 1
  55   29   35 1
  56   30   31 1
  57   30   60 1
  58   30   61 1
  59   31   32 1
  60   31   62 1
  61   31   63 1
  62   32   33 2
  63   32   34 2
  64   32   36 1
  65   35   64 1
  66   35   65 1
  67   35   66 1
  68   36   67 1
  69   36   68 1
  70   36   69 1

#	End of record

