#	Name: ASD01948228
#	Creating user name:	WinNT
#	Creation time:	15. 06. 2019 20:14

#	Modifying user name:	WinNT
#	Modification time:	15. 06. 2019 20:14

#	Program:	/corina/corina34_cracker 3.40 0067  02.08.2006

@<TRIPOS>MOLECULE
ASD01948228
  41   44    0    0    0
SMALL
NO_CHARGES


@<TRIPOS>ATOM
   1 C1             0.1641     1.4780     0.1202 C.ar    
   2 C2             0.1685     0.1051     0.1694 C.ar    
   3 C3             1.3755    -0.5999     0.2256 C.ar    
   4 C4             2.5847     0.1027     0.2316 C.ar    
   5 C5             2.5783     1.4839     0.1821 C.ar    
   6 C6             1.3662     2.1779     0.1261 C.ar    
   7 C7            -0.9294    -0.9297     0.1781 C.3     
   8 N8            -0.2615    -2.2346     0.2419 N.am    
   9 C9             1.0679    -2.0394     0.2691 C.2     
  10 C10            4.8974     0.4836    -1.1112 C.ar    
  11 C11            4.9628     1.5665    -0.2450 C.ar    
  12 N12            3.7879     2.1892     0.1884 N.pl3   
  13 C13            6.0598    -0.1300    -1.5374 C.ar    
  14 C14            7.2882     0.3328    -1.1026 C.ar    
  15 C15            7.3586     1.4119    -0.2391 C.ar    
  16 C16            6.1998     2.0305     0.1913 C.ar    
  17 F17            6.2683     3.0843     1.0339 F       
  18 I18            9.0469    -0.6020    -1.7526 I       
  19 O19            1.8988    -2.9256     0.3224 O.2     
  20 N20            1.3621     3.5702     0.0758 N.am    
  21 S21            0.1714     4.4231     0.8485 S.o2    
  22 C22            0.3323     3.9475     2.5916 C.3     
  23 O23            0.5403     5.7833     0.6667 O.2     
  24 O24           -1.0367     3.9123     0.3017 O.2     
  25 C25           -0.7153     4.4832     3.5697 C.3     
  26 C26           -0.7280     3.0069     3.1680 C.3     
  27 H27           -0.7724     2.0136     0.0725 H       
  28 H28            3.5216    -0.4329     0.2751 H       
  29 H29           -1.5671    -0.7920     1.0513 H       
  30 H30           -1.5212    -0.8558    -0.7342 H       
  31 H31           -0.7063    -3.0964     0.2615 H       
  32 H32            3.9386     0.1183    -1.4481 H       
  33 H33            3.8110     3.1097     0.4934 H       
  34 H34            6.0088    -0.9727    -2.2110 H       
  35 H35            8.3195     1.7707     0.0990 H       
  36 H36            2.0567     4.0399    -0.4118 H       
  37 H37            1.3535     3.8396     2.9572 H       
  38 H38           -0.3833     4.7274     4.5788 H       
  39 H39           -1.5011     5.1215     3.1657 H       
  40 H40           -1.5222     2.6740     2.4998 H       
  41 H41           -0.4044     2.2799     3.9129 H       
@<TRIPOS>BOND
   1    1    2 ar
   2    1    6 ar
   3    1   27 1
   4    2    3 ar
   5    2    7 1
   6    3    4 ar
   7    3    9 1
   8    4    5 ar
   9    4   28 1
  10    5    6 ar
  11    5   12 1
  12    6   20 1
  13    7    8 1
  14    7   29 1
  15    7   30 1
  16    8    9 am
  17    8   31 1
  18    9   19 2
  19   10   11 ar
  20   10   13 ar
  21   10   32 1
  22   11   12 1
  23   11   16 ar
  24   12   33 1
  25   13   14 ar
  26   13   34 1
  27   14   15 ar
  28   14   18 1
  29   15   16 ar
  30   15   35 1
  31   16   17 1
  32   20   21 am
  33   20   36 1
  34   21   22 1
  35   21   23 2
  36   21   24 2
  37   22   25 1
  38   22   26 1
  39   22   37 1
  40   25   26 1
  41   25   38 1
  42   25   39 1
  43   26   40 1
  44   26   41 1

#	End of record

