#	Name: ASD00170286
#	Creating user name:	WinNT
#	Creation time:	15. 06. 2019 18:31

#	Modifying user name:	WinNT
#	Modification time:	15. 06. 2019 18:31

#	Program:	/corina/corina34_cracker 3.40 0067  02.08.2006

@<TRIPOS>MOLECULE
ASD00170286
  27   29    0    0    0
SMALL
NO_CHARGES


@<TRIPOS>ATOM
   1 C1            -0.1229     1.2986    -0.0594 C.2     
   2 C2            -0.0344    -0.0641    -0.0034 C.2     
   3 C3            -1.3345    -0.7224     0.0974 C.2     
   4 C4            -2.3425     0.1439     0.1141 C.2     
   5 S5            -1.7463     1.8005     0.0146 S.3     
   6 C6             1.2374    -0.7919    -0.0410 C.2     
   7 C7             1.7762    -1.2618    -1.3226 C.2     
   8 O8             1.8476    -1.0069     0.9923 O.2     
   9 N9             0.9591     2.1523    -0.1569 N.pl3   
  10 S10            0.9984    -1.0702    -2.8879 S.3     
  11 C11            2.2838    -1.8680    -3.6767 C.2     
  12 C12            3.2230    -2.2440    -2.8012 C.2     
  13 C13            2.9654    -1.9132    -1.4914 C.2     
  14 C14           -1.8643    -2.1507     0.1894 C.3     
  15 C15           -3.3082    -2.0055     0.7101 C.3     
  16 C16           -3.6740    -0.5901     0.2196 C.3     
  17 H17            1.8613     1.7993    -0.1083 H       
  18 H18            0.8165     3.1046    -0.2740 H       
  19 H19            2.3326    -2.0460    -4.7408 H       
  20 H20            4.1198    -2.7654    -3.1017 H       
  21 H21            3.6326    -2.1520    -0.6764 H       
  22 H22           -1.8615    -2.6202    -0.7943 H       
  23 H23           -1.2655    -2.7328     0.8899 H       
  24 H24           -3.9618    -2.7548     0.2634 H       
  25 H25           -3.3386    -2.0618     1.7982 H       
  26 H26           -4.3238    -0.0949     0.9412 H       
  27 H27           -4.1578    -0.6401    -0.7558 H       
@<TRIPOS>BOND
   1    1    2 2
   2    1    9 1
   3    1    5 1
   4    2    3 1
   5    2    6 1
   6    3    4 2
   7    3   14 1
   8    4    5 1
   9    4   16 1
  10    6    7 1
  11    6    8 2
  12    7   10 1
  13    7   13 2
  14    9   17 1
  15    9   18 1
  16   10   11 1
  17   11   12 2
  18   11   19 1
  19   12   13 1
  20   12   20 1
  21   13   21 1
  22   14   15 1
  23   14   22 1
  24   14   23 1
  25   15   16 1
  26   15   24 1
  27   15   25 1
  28   16   26 1
  29   16   27 1

#	End of record

