#	Name: ASD02198152
#	Creating user name:	WinNT
#	Creation time:	15. 06. 2019 20:18

#	Modifying user name:	WinNT
#	Modification time:	15. 06. 2019 20:18

#	Program:	/corina/corina34_cracker 3.40 0067  02.08.2006

@<TRIPOS>MOLECULE
ASD02198152
  41   43    0    0    0
SMALL
NO_CHARGES


@<TRIPOS>ATOM
   1 C1            -0.0669     1.3691    -0.0848 C.2     
   2 C2            -0.0526    -0.0100    -0.0736 C.2     
   3 C3            -1.2326    -0.8012     0.1057 C.1     
   4 S4             1.5024     1.9924    -0.3198 S.3     
   5 C5             2.2001     0.3829    -0.4060 C.2     
   6 C6             1.2123    -0.5638    -0.2528 C.2     
   7 C7             3.5643     0.1029    -0.6023 C.2     
   8 C8             4.5343     1.2132    -0.7540 C.ar    
   9 O9             3.9490    -1.0531    -0.6478 O.2     
  10 N10            1.4523    -1.9280    -0.2746 N.pl3   
  11 N11           -1.1975     2.1389     0.0674 N.pl3   
  12 N12           -2.1687    -1.4288     0.2480 N.1     
  13 C13            5.8844     0.9293    -0.9482 C.ar    
  14 C14           -1.0899     3.5219     0.1554 C.ar    
  15 C15           -1.9908     4.3456    -0.5388 C.ar    
  16 C16           -0.0943     4.0965     0.9350 C.ar    
  17 C17            0.0105     5.4700     1.0208 C.ar    
  18 C18           -0.8736     6.2857     0.3329 C.ar    
  19 C19           -1.8712     5.7344    -0.4414 C.ar    
  20 C20            6.7792     1.9779    -1.0883 C.ar    
  21 C21            6.2929     3.2749    -1.0294 C.ar    
  22 C22            4.9376     3.4838    -0.8337 C.ar    
  23 N23            4.1087     2.4698    -0.7090 N.ar    
  24 C24           -3.0551     3.7493    -1.3649 C.2     
  25 O25           -3.0854     2.5474    -1.5420 O.2     
  26 O26           -3.9950     4.5366    -1.9241 O.3     
  27 C27           -5.0130     3.8807    -2.7253 C.3     
  28 H28            2.3548    -2.2597    -0.4031 H       
  29 H29            0.7179    -2.5515    -0.1615 H       
  30 H30           -2.0694     1.7163     0.1133 H       
  31 H31            6.2286    -0.0936    -0.9886 H       
  32 H32            0.5983     3.4679     1.4749 H       
  33 H33            0.7864     5.9120     1.6283 H       
  34 H34           -0.7831     7.3593     0.4076 H       
  35 H35           -2.5575     6.3749    -0.9755 H       
  36 H36            7.8317     1.7891    -1.2397 H       
  37 H37            6.9643     4.1142    -1.1347 H       
  38 H38            4.5556     4.4929    -0.7870 H       
  39 H39           -4.5397     3.3552    -3.5548 H       
  40 H40           -5.5582     3.1675    -2.1071 H       
  41 H41           -5.7050     4.6270    -3.1154 H       
@<TRIPOS>BOND
   1    1    2 2
   2    1    4 1
   3    1   11 1
   4    2    3 1
   5    2    6 1
   6    3   12 3
   7    4    5 1
   8    5    6 2
   9    5    7 1
  10    6   10 1
  11    7    8 1
  12    7    9 2
  13    8   13 ar
  14    8   23 ar
  15   10   28 1
  16   10   29 1
  17   11   14 1
  18   11   30 1
  19   13   20 ar
  20   13   31 1
  21   14   15 ar
  22   14   16 ar
  23   15   24 1
  24   15   19 ar
  25   16   17 ar
  26   16   32 1
  27   17   18 ar
  28   17   33 1
  29   18   19 ar
  30   18   34 1
  31   19   35 1
  32   20   21 ar
  33   20   36 1
  34   21   22 ar
  35   21   37 1
  36   22   23 ar
  37   22   38 1
  38   24   25 2
  39   24   26 1
  40   26   27 1
  41   27   39 1
  42   27   40 1
  43   27   41 1

#	End of record

