#	Name: ASD05740021
#	Creating user name:	WinNT
#	Creation time:	15. 06. 2019 21:02

#	Modifying user name:	WinNT
#	Modification time:	15. 06. 2019 21:02

#	Program:	/corina/corina34_cracker 3.40 0067  02.08.2006

@<TRIPOS>MOLECULE
ASD05740021
  54   55    0    0    0
SMALL
NO_CHARGES


@<TRIPOS>ATOM
   1 C1            -0.0225     1.8097     0.0120 C.3     
   2 C2             4.7193     4.4998     8.3359 C.ar    
   3 C3             2.5113     3.6362     8.6678 C.ar    
   4 C4             2.8002     2.5835     7.7919 C.ar    
   5 C5             4.0659     2.5016     7.1822 C.ar    
   6 C6             5.0204     3.4679     7.4622 C.ar    
   7 C7             1.7997     1.5577     7.4900 C.2     
   8 C8             2.1409     0.5611     6.6322 C.2     
   9 C9             3.4301     0.5378     6.0615 C.2     
  10 O10            4.3409     1.4840     6.3384 O.3     
  11 C11            1.1444    -0.5170     6.2918 C.3     
  12 C12            0.4278    -0.1542     5.0167 C.ar    
  13 C13           -0.7975     0.4992     5.0517 C.ar    
  14 O14            3.7231    -0.3614     5.2940 O.2     
  15 C15            0.2848    -0.1083     2.6273 C.ar    
  16 N16           -0.8829     0.5097     2.7043 N.ar    
  17 C17           -1.4280     0.8180     3.8664 C.ar    
  18 O18            5.6545     5.4450     8.6091 O.3     
  19 N19            0.8226    -0.4138     1.3808 N.am    
  20 S20            0.0021    -0.0041     0.0020 S.o2    
  21 O21           -1.3056    -0.5216     0.2056 O.2     
  22 O22            0.8248    -0.4858    -1.0517 O.2     
  23 C23            0.4289     1.6061     8.1142 C.3     
  24 C24            6.9231     5.3075     7.9658 C.3     
  25 C25            3.4621     4.5786     8.9323 C.ar    
  26 C26            3.1509     5.7117     9.8759 C.3     
  27 C27            0.9779    -0.4602     3.7837 C.ar    
  28 F28            2.1703    -1.0903     3.7029 F       
  29 H29            1.0001     2.1870     0.0043 H       
  30 H30           -0.5497     2.1708    -0.8711 H       
  31 H31           -0.5327     2.1613     0.9088 H       
  32 H32            1.5401     3.7003     9.1360 H       
  33 H33            5.9952     3.4163     7.0002 H       
  34 H34            1.6659    -1.4648     6.1585 H       
  35 H35            0.4205    -0.6113     7.1013 H       
  36 H36           -1.2523     0.7549     5.9972 H       
  37 H37           -2.3806     1.3263     3.8898 H       
  38 H38            1.6782    -0.8667     1.3196 H       
  39 H39            0.3572     2.4765     8.7664 H       
  40 H40           -0.3251     1.6765     7.3302 H       
  41 H41            0.2631     0.7004     8.6974 H       
  42 H42            7.3745     4.3575     8.2520 H       
  43 H43            6.7870     5.3340     6.8847 H       
  44 H44            7.5754     6.1260     8.2701 H       
  45 H45            2.7368     6.5490     9.3141 H       
  46 H46            2.4257     5.3779    10.6179 H       
  47 H47            4.0653     6.0279    10.3781 H       
  48 C48           13.1025    14.2184    17.4862 C.3     
  49 N49           13.1224    12.7535    17.4781 N.2     
  50 C50           13.6631    12.1410    16.5321 C.1     
  51 O51           14.1857    11.5490    15.6179 O.2     
  52 H52           14.1251    14.5956    17.4785 H       
  53 H53           12.5754    14.5794    16.6031 H       
  54 H54           12.5923    14.5699    18.3830 H       
@<TRIPOS>BOND
   1    1   20 1
   2    1   29 1
   3    1   30 1
   4    1   31 1
   5    2   18 1
   6    2   25 ar
   7    2    6 ar
   8    3    4 ar
   9    3   25 ar
  10    3   32 1
  11    4    5 ar
  12    4    7 1
  13    5    6 ar
  14    5   10 1
  15    6   33 1
  16    7    8 2
  17    7   23 1
  18    8    9 1
  19    8   11 1
  20    9   10 1
  21    9   14 2
  22   11   12 1
  23   11   34 1
  24   11   35 1
  25   12   13 ar
  26   12   27 ar
  27   13   17 ar
  28   13   36 1
  29   15   16 ar
  30   15   19 1
  31   15   27 ar
  32   16   17 ar
  33   17   37 1
  34   18   24 1
  35   19   20 am
  36   19   38 1
  37   20   21 2
  38   20   22 2
  39   23   39 1
  40   23   40 1
  41   23   41 1
  42   24   42 1
  43   24   43 1
  44   24   44 1
  45   25   26 1
  46   26   45 1
  47   26   46 1
  48   26   47 1
  49   27   28 1
  50   48   49 1
  51   48   52 1
  52   48   53 1
  53   48   54 1
  54   49   50 2
  55   50   51 2

#	End of record

