#	Name: ASD00311535
#	Creating user name:	WinNT
#	Creation time:	15. 06. 2019 18:35

#	Modifying user name:	WinNT
#	Modification time:	15. 06. 2019 18:35

#	Program:	/corina/corina34_cracker 3.40 0067  02.08.2006

@<TRIPOS>MOLECULE
ASD00311535
  48   51    0    0    0
SMALL
NO_CHARGES


@<TRIPOS>ATOM
   1 C1            -0.0167     1.3778     0.0096 C.2     
   2 C2             0.0021    -0.0041     0.0020 C.2     
   3 C3             1.2587    -0.6766    -0.0136 C.2     
   4 C4             2.4315     0.0673    -0.0208 C.2     
   5 C5             2.3574     1.4752    -0.0125 C.2     
   6 N6             1.1649     2.0903     0.0022 N.am    
   7 C7            -1.3433    -0.5752     0.0118 C.2     
   8 C8            -2.3228     0.3263     0.0260 C.2     
   9 S9            -1.6792     1.9563     0.0358 S.3     
  10 O10            3.3823     2.1373    -0.0187 O.2     
  11 C11            3.7476    -0.6120    -0.0365 C.ar    
  12 C12            4.5934    -0.4746    -1.1370 C.ar    
  13 C13            5.8182    -1.1099    -1.1457 C.ar    
  14 C14            6.2077    -1.8823    -0.0661 C.ar    
  15 C15            5.3732    -2.0224     1.0284 C.ar    
  16 C16            4.1486    -1.3870     1.0516 C.ar    
  17 C17           -1.5957    -2.0344     0.0059 C.ar    
  18 C18           -1.1997    -2.8185     1.0963 C.ar    
  19 C19           -1.4370    -4.1797     1.0879 C.ar    
  20 C20           -2.0702    -4.7693    -0.0060 C.ar    
  21 C21           -2.4637    -3.9863    -1.0911 C.ar    
  22 C22           -2.2331    -2.6280    -1.0831 C.ar    
  23 C23           -3.1747    -8.2034    -1.0702 C.ar    
  24 C24           -2.9579    -6.8414    -1.1021 C.ar    
  25 C25           -2.3246    -6.2298    -0.0157 C.ar    
  26 C26           -1.9376    -7.0336     1.0611 C.ar    
  27 C27           -2.1932    -8.3882     1.0107 C.ar    
  28 N28           -2.7935    -8.9258    -0.0340 N.ar    
  29 O29           -0.5825    -2.2418     2.1609 O.3     
  30 O30            1.3086    -2.0291    -0.0209 O.3     
  31 H31            1.1327     3.0598     0.0077 H       
  32 H32           -3.3755     0.0848     0.0347 H       
  33 H33            4.2901     0.1275    -1.9807 H       
  34 H34            6.4740    -1.0043    -1.9973 H       
  35 H35            7.1671    -2.3782    -0.0778 H       
  36 H36            5.6826    -2.6270     1.8681 H       
  37 H37            3.5000    -1.4932     1.9086 H       
  38 H38           -1.1322    -4.7866     1.9276 H       
  39 H39           -2.9536    -4.4449    -1.9373 H       
  40 H40           -2.5428    -2.0231    -1.9225 H       
  41 H41           -3.6671    -8.6841    -1.9026 H       
  42 H42           -3.2722    -6.2563    -1.9537 H       
  43 H43           -1.4454    -6.6003     1.9193 H       
  44 H44           -1.8977    -9.0172     1.8374 H       
  45 H45           -1.1889    -1.9400     2.8511 H       
  46 H46            2.2059    -2.3895    -0.0314 H       
  47 Cl47          12.1671     8.0598     7.8511 Cl      
  48 H48           12.1671     9.4298     7.8511 H       
@<TRIPOS>BOND
   1    1    2 2
   2    1    6 1
   3    1    9 1
   4    2    3 1
   5    2    7 1
   6    3    4 2
   7    3   30 1
   8    4    5 1
   9    4   11 1
  10    5    6 am
  11    5   10 2
  12    6   31 1
  13    7    8 2
  14    7   17 1
  15    8    9 1
  16    8   32 1
  17   11   12 ar
  18   11   16 ar
  19   12   13 ar
  20   12   33 1
  21   13   14 ar
  22   13   34 1
  23   14   15 ar
  24   14   35 1
  25   15   16 ar
  26   15   36 1
  27   16   37 1
  28   17   18 ar
  29   17   22 ar
  30   18   19 ar
  31   18   29 1
  32   19   20 ar
  33   19   38 1
  34   20   21 ar
  35   20   25 1
  36   21   22 ar
  37   21   39 1
  38   22   40 1
  39   23   24 ar
  40   23   28 ar
  41   23   41 1
  42   24   25 ar
  43   24   42 1
  44   25   26 ar
  45   26   27 ar
  46   26   43 1
  47   27   28 ar
  48   27   44 1
  49   29   45 1
  50   30   46 1
  51   47   48 1

#	End of record

