#	Name: ASD03730350
#	Creating user name:	WinNT
#	Creation time:	15. 06. 2019 20:44

#	Modifying user name:	WinNT
#	Modification time:	15. 06. 2019 20:44

#	Program:	/corina/corina34_cracker 3.40 0067  02.08.2006

@<TRIPOS>MOLECULE
ASD03730350
  67   72    0    0    0
SMALL
NO_CHARGES


@<TRIPOS>ATOM
   1 C1             0.2003    -0.3495    -2.2035 C.2     
   2 C2            -1.0086    -0.1629    -1.3731 C.ar    
   3 C3            -0.9663     0.6639    -0.2491 C.ar    
   4 C4            -2.0978     0.8339     0.5212 C.ar    
   5 C5            -3.2730     0.1868     0.1821 C.ar    
   6 C6            -3.3217    -0.6339    -0.9305 C.ar    
   7 C7            -2.1985    -0.8081    -1.7127 C.ar    
   8 O8             1.2064     0.2895    -1.9644 O.2     
   9 N9             0.1886    -1.2320    -3.2221 N.am    
  10 C10            0.3130     1.3686     0.1222 C.3     
  11 O11           -4.0502     0.4768     5.7666 O.3     
  12 C12           -4.5231     0.8195     7.0826 C.3     
  13 O13           -3.3197     1.1350     7.8074 O.3     
  14 C14           -2.4281     1.5649     6.8666 C.ar    
  15 C15           -2.8773     1.1589     5.6120 C.ar    
  16 C16           -1.2509     2.2822     6.9810 C.ar    
  17 C17           -0.5071     2.6018     5.8491 C.ar    
  18 C18           -0.9617     2.1837     4.6021 C.ar    
  19 C19           -2.1383     1.4736     4.4841 C.ar    
  20 O20            0.6559     3.3059     5.7402 O.3     
  21 C21            0.0565     2.6496     3.5960 C.3     
  22 C22            1.2647     3.0236     4.4654 C.3     
  23 N23            0.1224     2.0965     1.3792 N.am    
  24 C24            0.3957     1.5828     2.5952 C.2     
  25 C25           -0.4322     3.8138     2.7863 C.ar    
  26 C26           -0.8846     5.0738     3.1087 C.ar    
  27 C27           -1.2747     5.9468     2.1088 C.ar    
  28 C28           -1.2097     5.5507     0.7852 C.ar    
  29 C29           -0.7582     4.2894     0.4574 C.ar    
  30 C30           -0.3630     3.4041     1.4573 C.ar    
  31 O31            0.8307     0.4761     2.8339 O.2     
  32 C32            1.3865    -1.4168    -4.0450 C.3     
  33 C33            1.1080    -2.4667    -5.1225 C.3     
  34 C34            0.0360    -1.9427    -6.0801 C.3     
  35 C35           -0.3435    -3.0437    -7.0725 C.3     
  36 C36            2.3935    -2.7507    -5.9021 C.3     
  37 C37            3.4163    -3.4114    -4.9757 C.3     
  38 H38           -2.0664     1.4733     1.3910 H       
  39 H39           -4.1560     0.3228     0.7889 H       
  40 H40           -4.2421    -1.1362    -1.1897 H       
  41 H41           -2.2389    -1.4459    -2.5834 H       
  42 H42           -0.6130    -1.7447    -3.4103 H       
  43 H43            1.1097     0.6349     0.2445 H       
  44 H44            0.5833     2.0705    -0.6667 H       
  45 H45           -5.1823     1.6865     7.0389 H       
  46 H46           -5.0338    -0.0285     7.5389 H       
  47 H47           -0.9067     2.5964     7.9553 H       
  48 H48           -2.4838     1.1619     3.5095 H       
  49 H49            1.7661     3.9077     4.0716 H       
  50 H50            1.9586     2.1867     4.5446 H       
  51 H51           -0.9347     5.3809     4.1429 H       
  52 H52           -1.6288     6.9354     2.3611 H       
  53 H53           -1.5144     6.2322     0.0047 H       
  54 H54           -0.7108     3.9872    -0.5784 H       
  55 H55            1.6513    -0.4715    -4.5186 H       
  56 H56            2.2113    -1.7516    -3.4159 H       
  57 H57            0.7576    -3.3856    -4.6524 H       
  58 H58           -0.8455    -1.6464    -5.5117 H       
  59 H59            0.4241    -1.0815    -6.6239 H       
  60 H60            0.5062    -3.2570    -7.7210 H       
  61 H61           -0.6192    -3.9459    -6.5264 H       
  62 H62           -1.1879    -2.7127    -7.6770 H       
  63 H63            2.1732    -3.4183    -6.7351 H       
  64 H64            2.8009    -1.8148    -6.2844 H       
  65 H65            4.3449    -3.5800    -5.5211 H       
  66 H66            3.6088    -2.7598    -4.1233 H       
  67 H67            3.0240    -4.3652    -4.6227 H       
@<TRIPOS>BOND
   1    1    2 1
   2    1    8 2
   3    1    9 am
   4    2    3 ar
   5    2    7 ar
   6    3    4 ar
   7    3   10 1
   8    4    5 ar
   9    4   38 1
  10    5    6 ar
  11    5   39 1
  12    6    7 ar
  13    6   40 1
  14    7   41 1
  15    9   32 1
  16    9   42 1
  17   10   23 1
  18   10   43 1
  19   10   44 1
  20   11   12 1
  21   11   15 1
  22   12   13 1
  23   12   45 1
  24   12   46 1
  25   13   14 1
  26   14   15 ar
  27   14   16 ar
  28   15   19 ar
  29   16   17 ar
  30   16   47 1
  31   17   18 ar
  32   17   20 1
  33   18   19 ar
  34   18   21 1
  35   19   48 1
  36   20   22 1
  37   21   22 1
  38   21   24 1
  39   21   25 1
  40   22   49 1
  41   22   50 1
  42   23   24 am
  43   23   30 1
  44   24   31 2
  45   25   26 ar
  46   25   30 ar
  47   26   27 ar
  48   26   51 1
  49   27   28 ar
  50   27   52 1
  51   28   29 ar
  52   28   53 1
  53   29   30 ar
  54   29   54 1
  55   32   33 1
  56   32   55 1
  57   32   56 1
  58   33   34 1
  59   33   36 1
  60   33   57 1
  61   34   35 1
  62   34   58 1
  63   34   59 1
  64   35   60 1
  65   35   61 1
  66   35   62 1
  67   36   37 1
  68   36   63 1
  69   36   64 1
  70   37   65 1
  71   37   66 1
  72   37   67 1

#	End of record

