#	Name: ASD02038811
#	Creating user name:	WinNT
#	Creation time:	15. 06. 2019 20:17

#	Modifying user name:	WinNT
#	Modification time:	15. 06. 2019 20:17

#	Program:	/corina/corina34_cracker 3.40 0067  02.08.2006

@<TRIPOS>MOLECULE
ASD02038811
  51   54    0    0    0
SMALL
NO_CHARGES


@<TRIPOS>ATOM
   1 C1            -1.2822    -0.8508     0.4647 C.2     
   2 C2            -0.0603    -0.0341     0.3014 C.2     
   3 N3             1.1370    -0.6350     0.1537 N.am    
   4 C4             1.2418    -2.0930     0.2503 C.3     
   5 C5             1.2142    -2.6913    -1.1325 C.ar    
   6 C6             2.3337     0.1700    -0.1034 C.3     
   7 O7            -0.1358     1.1791     0.3003 O.2     
   8 N8            -1.3380    -2.1948     0.4954 N.2     
   9 C9            -2.5936    -2.5279     0.6548 C.2     
  10 N10           -3.3113    -1.3914     0.7223 N.pl3   
  11 N11           -2.5058    -0.3919     0.6114 N.2     
  12 C12            2.3968    -3.0124    -1.7680 C.ar    
  13 C13            2.1223     1.0142    -1.3639 C.3     
  14 C14            3.3453     1.9093    -1.5802 C.3     
  15 O15            3.5448     2.7281    -0.4261 O.3     
  16 C16            3.7944     1.9937     0.7742 C.3     
  17 C17            2.5895     1.1020     1.0850 C.3     
  18 C18           -4.7632    -1.3052     0.8982 C.3     
  19 C19            0.0039    -2.9231    -1.7603 C.ar    
  20 C20           -0.0288    -3.4729    -3.0293 C.ar    
  21 C21            1.1476    -3.7933    -3.6758 C.ar    
  22 C22            2.3698    -3.5659    -3.0462 C.ar    
  23 C23            3.6381    -3.9083    -3.7364 C.ar    
  24 C24            4.8647    -3.6847    -3.1151 C.ar    
  25 N25            5.9913    -3.9887    -3.7266 N.ar    
  26 C26            6.0071    -4.5111    -4.9375 C.ar    
  27 C27            4.8311    -4.7627    -5.6207 C.ar    
  28 C28            3.6210    -4.4658    -5.0179 C.ar    
  29 H29            2.1776    -2.3582     0.7424 H       
  30 H30            0.4039    -2.4798     0.8304 H       
  31 H31            3.1919    -0.4872    -0.2443 H       
  32 H32           -2.9833    -3.5330     0.7199 H       
  33 H33            3.3413    -2.8345    -1.2753 H       
  34 H34            1.9946     0.3579    -2.2247 H       
  35 H35            1.2341     1.6342    -1.2424 H       
  36 H36            4.2263     1.2883    -1.7420 H       
  37 H37            3.1822     2.5433    -2.4518 H       
  38 H38            4.6813     1.3737     0.6432 H       
  39 H39            3.9548     2.6884     1.5986 H       
  40 H40            1.7107     1.7237     1.2560 H       
  41 H41            2.7957     0.5084     1.9756 H       
  42 H42           -4.9986    -1.2658     1.9617 H       
  43 H43           -5.1355    -0.4046     0.4100 H       
  44 H44           -5.2356    -2.1812     0.4538 H       
  45 H45           -0.9191    -2.6742    -1.2578 H       
  46 H46           -0.9767    -3.6521    -3.5149 H       
  47 H47            1.1209    -4.2228    -4.6664 H       
  48 H48            4.8923    -3.2580    -2.1234 H       
  49 H49            6.9530    -4.7456    -5.4030 H       
  50 H50            4.8567    -5.1901    -6.6123 H       
  51 H51            2.6877    -4.6523    -5.5282 H       
@<TRIPOS>BOND
   1    1    2 1
   2    1    8 1
   3    1   11 2
   4    2    3 am
   5    2    7 2
   6    3    4 1
   7    3    6 1
   8    4    5 1
   9    4   29 1
  10    4   30 1
  11    5   12 ar
  12    5   19 ar
  13    6   13 1
  14    6   17 1
  15    6   31 1
  16    8    9 2
  17    9   10 1
  18    9   32 1
  19   10   11 1
  20   10   18 1
  21   12   22 ar
  22   12   33 1
  23   13   14 1
  24   13   34 1
  25   13   35 1
  26   14   15 1
  27   14   36 1
  28   14   37 1
  29   15   16 1
  30   16   17 1
  31   16   38 1
  32   16   39 1
  33   17   40 1
  34   17   41 1
  35   18   42 1
  36   18   43 1
  37   18   44 1
  38   19   20 ar
  39   19   45 1
  40   20   21 ar
  41   20   46 1
  42   21   22 ar
  43   21   47 1
  44   22   23 1
  45   23   24 ar
  46   23   28 ar
  47   24   25 ar
  48   24   48 1
  49   25   26 ar
  50   26   27 ar
  51   26   49 1
  52   27   28 ar
  53   27   50 1
  54   28   51 1

#	End of record

