#	Name: ASD03240081
#	Creating user name:	WinNT
#	Creation time:	15. 06. 2019 20:34

#	Modifying user name:	WinNT
#	Modification time:	15. 06. 2019 20:34

#	Program:	/corina/corina34_cracker 3.40 0067  02.08.2006

@<TRIPOS>MOLECULE
ASD03240081
  73   79    0    0    0
SMALL
NO_CHARGES


@<TRIPOS>ATOM
   1 C1            -0.0170     1.4041     0.0098 C.ar    
   2 C2             0.0021    -0.0041     0.0020 C.ar    
   3 C3             1.1827     2.1178     0.0021 C.ar    
   4 C4             2.3730     1.3970    -0.0131 C.ar    
   5 C5             2.3173    -0.0095    -0.0201 C.ar    
   6 N6             1.1594    -0.6500    -0.0125 N.ar    
   7 C7             3.5779    -0.7869    -0.0369 C.ar    
   8 C8             3.6788     2.0993    -0.0223 C.ar    
   9 C9             3.9189     3.1178    -0.9431 C.ar    
  10 C10            5.1363     3.7680    -0.9470 C.ar    
  11 C11            6.1172     3.4105    -0.0395 C.ar    
  12 C12            5.8845     2.4005     0.8766 C.ar    
  13 C13            4.6689     1.7473     0.8936 C.ar    
  14 C14            3.6621    -1.9992     0.6477 C.ar    
  15 C15            4.8391    -2.7190     0.6280 C.ar    
  16 C16            5.9343    -2.2405    -0.0689 C.ar    
  17 C17            5.8569    -1.0388    -0.7499 C.ar    
  18 C18            4.6838    -0.3124    -0.7420 C.ar    
  19 C19            7.2169    -3.0315    -0.0860 C.3     
  20 N20            7.2052    -3.9589    -1.2251 N.3     
  21 C21            8.5246    -4.5747    -1.4160 C.3     
  22 C22            8.5152    -5.4189    -2.6924 C.3     
  23 C23            7.4383    -6.5011    -2.5749 C.3     
  24 C24            6.0816    -5.8354    -2.3283 C.3     
  25 C25            6.1616    -4.9791    -1.0624 C.3     
  26 C26            7.3835    -7.2978    -3.8529 C.2     
  27 N27            6.6719    -6.9490    -4.9593 N.pl3   
  28 C28            6.8811    -7.9297    -5.9081 C.ar    
  29 C29            7.7431    -8.8667    -5.3140 C.ar    
  30 N30            8.0138    -8.4165    -4.0613 N.2     
  31 C31            6.4346    -8.1280    -7.2076 C.ar    
  32 C32            6.8419    -9.2463    -7.9070 C.ar    
  33 C33            7.6943   -10.1725    -7.3177 C.ar    
  34 C34            8.1427    -9.9916    -6.0403 C.ar    
  35 O35           -1.2756    -0.4340     0.0115 O.3     
  36 C36           -2.1417     0.6052     0.0250 C.2     
  37 C37           -1.4324     1.7901     0.0195 C.2     
  38 C38           -3.5506     0.4954     0.0374 C.2     
  39 O39           -4.2392     1.4992     0.0487 O.2     
  40 O40           -4.1328    -0.7227     0.0368 O.3     
  41 C41           -5.5613    -0.7589     0.0498 C.3     
  42 N42           -1.9493     3.0744     0.0298 N.pl3   
  43 F43            6.4091    -9.4419    -9.1717 F       
  44 H44            1.1870     3.1978     0.0076 H       
  45 H45            3.1540     3.3975    -1.6524 H       
  46 H46            5.3236     4.5570    -1.6603 H       
  47 H47            7.0685     3.9218    -0.0464 H       
  48 H48            6.6539     2.1257     1.5828 H       
  49 H49            4.4883     0.9589     1.6093 H       
  50 H50            2.8079    -2.3735     1.1924 H       
  51 H51            4.9057    -3.6577     1.1580 H       
  52 H52            6.7153    -0.6702    -1.2918 H       
  53 H53            4.6246     0.6257    -1.2740 H       
  54 H54            8.0626    -2.3503    -0.1807 H       
  55 H55            7.3077    -3.5966     0.8417 H       
  56 H56            9.2806    -3.7942    -1.5023 H       
  57 H57            8.7555    -5.2109    -0.5615 H       
  58 H58            8.2979    -4.7808    -3.5491 H       
  59 H59            9.4899    -5.8883    -2.8255 H       
  60 H60            7.6762    -7.1627    -1.7420 H       
  61 H61            5.8261    -5.2039    -3.1792 H       
  62 H62            5.3177    -6.6024    -2.2012 H       
  63 H63            6.4035    -5.6134    -0.2096 H       
  64 H64            5.2013    -4.4924    -0.8919 H       
  65 H65            6.1199    -6.1580    -5.0620 H       
  66 H66            5.7716    -7.4111    -7.6690 H       
  67 H67            8.0054   -11.0435    -7.8753 H       
  68 H68            8.8048   -10.7175    -5.5919 H       
  69 H69           -5.9457    -0.2501    -0.8342 H       
  70 H70           -5.8985    -1.7954     0.0478 H       
  71 H71           -5.9293    -0.2588     0.9456 H       
  72 H72           -2.9096     3.2106     0.0420 H       
  73 H73           -1.3511     3.8379     0.0248 H       
@<TRIPOS>BOND
   1    1    2 ar
   2    1    3 ar
   3    1   37 1
   4    2   35 1
   5    2    6 ar
   6    3    4 ar
   7    3   44 1
   8    4    5 ar
   9    4    8 1
  10    5    6 ar
  11    5    7 1
  12    7   14 ar
  13    7   18 ar
  14    8    9 ar
  15    8   13 ar
  16    9   10 ar
  17    9   45 1
  18   10   11 ar
  19   10   46 1
  20   11   12 ar
  21   11   47 1
  22   12   13 ar
  23   12   48 1
  24   13   49 1
  25   14   15 ar
  26   14   50 1
  27   15   16 ar
  28   15   51 1
  29   16   17 ar
  30   16   19 1
  31   17   18 ar
  32   17   52 1
  33   18   53 1
  34   19   20 1
  35   19   54 1
  36   19   55 1
  37   20   21 1
  38   20   25 1
  39   21   22 1
  40   21   56 1
  41   21   57 1
  42   22   23 1
  43   22   58 1
  44   22   59 1
  45   23   24 1
  46   23   26 1
  47   23   60 1
  48   24   25 1
  49   24   61 1
  50   24   62 1
  51   25   63 1
  52   25   64 1
  53   26   27 1
  54   26   30 2
  55   27   28 1
  56   27   65 1
  57   28   29 ar
  58   28   31 ar
  59   29   30 1
  60   29   34 ar
  61   31   32 ar
  62   31   66 1
  63   32   33 ar
  64   32   43 1
  65   33   34 ar
  66   33   67 1
  67   34   68 1
  68   35   36 1
  69   36   37 2
  70   36   38 1
  71   37   42 1
  72   38   39 2
  73   38   40 1
  74   40   41 1
  75   41   69 1
  76   41   70 1
  77   41   71 1
  78   42   72 1
  79   42   73 1

#	End of record

