#	Name: ASD08150518
#	Creating user name:	WinNT
#	Creation time:	15. 06. 2019 21:16

#	Modifying user name:	WinNT
#	Modification time:	15. 06. 2019 21:16

#	Program:	/corina/corina34_cracker 3.40 0067  02.08.2006

@<TRIPOS>MOLECULE
ASD08150518
  28   29    0    0    0
SMALL
NO_CHARGES


@<TRIPOS>ATOM
   1 C1             0.1606     1.6096     0.0290 C.2     
   2 C2            -0.1308     0.1646     0.0384 C.ar    
   3 C3             0.9124    -0.7669    -0.0825 C.ar    
   4 C4             0.6254    -2.1259    -0.0724 C.ar    
   5 C5            -0.6795    -2.5563     0.0560 C.ar    
   6 C6            -1.7126    -1.6392     0.1756 C.ar    
   7 C7            -1.4463    -0.2862     0.1734 C.ar    
   8 O8             1.3131     1.9974     0.0095 O.2     
   9 N9            -0.8503     2.5009     0.0365 N.am    
  10 C10           -0.5762     3.8686     0.1445 C.ar    
  11 C11           -1.4851     4.8018    -0.3409 C.ar    
  12 C12           -1.2108     6.1517    -0.2324 C.ar    
  13 C13           -0.0337     6.5742     0.3583 C.ar    
  14 C14            0.8719     5.6483     0.8419 C.ar    
  15 C15            0.6014     4.2971     0.7419 C.ar    
  16 Cl16          -2.9623     4.2719    -1.0830 Cl      
  17 Cl17          -3.3487    -2.1971     0.3357 Cl      
  18 N18            2.2255    -0.3317    -0.2121 N.pl3   
  19 H19            1.4243    -2.8466    -0.1654 H       
  20 H20           -0.8975    -3.6140     0.0629 H       
  21 H21           -2.2539     0.4240     0.2714 H       
  22 H22           -1.7679     2.1942    -0.0330 H       
  23 H23           -1.9160     6.8776    -0.6096 H       
  24 H24            0.1786     7.6298     0.4416 H       
  25 H25            1.7901     5.9817     1.3026 H       
  26 H26            1.3076     3.5748     1.1241 H       
  27 H27            2.4164     0.6157    -0.2960 H       
  28 H28            2.9513    -0.9751    -0.2186 H       
@<TRIPOS>BOND
   1    1    2 1
   2    1    8 2
   3    1    9 am
   4    2    3 ar
   5    2    7 ar
   6    3    4 ar
   7    3   18 1
   8    4    5 ar
   9    4   19 1
  10    5    6 ar
  11    5   20 1
  12    6    7 ar
  13    6   17 1
  14    7   21 1
  15    9   10 1
  16    9   22 1
  17   10   11 ar
  18   10   15 ar
  19   11   12 ar
  20   11   16 1
  21   12   13 ar
  22   12   23 1
  23   13   14 ar
  24   13   24 1
  25   14   15 ar
  26   14   25 1
  27   15   26 1
  28   18   27 1
  29   18   28 1

#	End of record

