#	Name: ASD03320009
#	Creating user name:	WinNT
#	Creation time:	15. 06. 2019 20:35

#	Modifying user name:	WinNT
#	Modification time:	15. 06. 2019 20:35

#	Program:	/corina/corina34_cracker 3.40 0067  02.08.2006

@<TRIPOS>MOLECULE
ASD03320009
  69   73    0    0    0
SMALL
NO_CHARGES


@<TRIPOS>ATOM
   1 C1            -1.2300     0.2254    -0.8036 C.3     
   2 C2            -1.7111    -1.2165    -0.9884 C.3     
   3 C3            -3.2365    -1.2589    -0.8728 C.3     
   4 N4            -3.6430    -0.7534     0.4446 N.3     
   5 C5            -3.2333     0.6450     0.6263 C.3     
   6 C6            -1.7078     0.7443     0.5554 C.3     
   7 C7             0.2985     0.2653    -0.8575 C.3     
   8 C8            -5.0902    -0.9081     0.6442 C.3     
   9 C9            -5.4335    -0.6120     2.0814 C.ar    
  10 C10           -5.7523     0.6796     2.4613 C.ar    
  11 C11           -5.4341    -1.6341     3.0140 C.ar    
  12 C12           -5.7479    -1.3701     4.3311 C.ar    
  13 C13           -6.0649    -0.0681     4.7223 C.ar    
  14 C14           -6.0675     0.9575     3.7753 C.ar    
  15 C15           -6.4022     0.2222     6.1318 C.2     
  16 N16           -6.7078     1.4803     6.5063 N.am    
  17 O17           -6.4040    -0.6739     6.9533 O.2     
  18 C18           -7.1229     1.7386     7.8165 C.ar    
  19 C19           -6.5483     1.0488     8.8767 C.ar    
  20 C20           -8.1052     2.6883     8.0595 C.ar    
  21 C21           -8.5139     2.9419     9.3609 C.ar    
  22 C22           -7.9388     2.2446    10.4166 C.ar    
  23 C23           -6.9579     1.3034    10.1716 C.ar    
  24 C24           -8.3817     2.5197    11.8305 C.3     
  25 N25           -9.5029     3.8982     9.6101 N.pl3   
  26 C26           -9.6429     4.9865     8.7643 C.ar    
  27 N27           -8.7546     5.1721     7.7987 N.ar    
  28 N28          -10.6637     5.8113     8.9382 N.ar    
  29 C29          -10.8263     6.8655     8.1423 C.ar    
  30 C30           -9.9022     7.0898     7.1182 C.ar    
  31 C31           -8.8538     6.1994     6.9699 C.ar    
  32 C32          -11.9710     7.7877     8.3388 C.ar    
  33 C33          -12.2013     8.8311     7.4445 C.ar    
  34 N34          -13.2175     9.6512     7.6184 N.ar    
  35 C35          -14.0506     9.5221     8.6328 C.ar    
  36 C36          -13.8896     8.5118     9.5637 C.ar    
  37 C37          -12.8401     7.6209     9.4213 C.ar    
  38 H38           -1.6389     0.8504    -1.5975 H       
  39 H39           -1.4105    -1.5772    -1.9721 H       
  40 H40           -1.2700    -1.8489    -0.2179 H       
  41 H41           -3.6772    -0.6373    -1.6522 H       
  42 H42           -3.5811    -2.2864    -0.9897 H       
  43 H43           -3.6740     1.2577    -0.1601 H       
  44 H44           -3.5756     1.0004     1.5982 H       
  45 H45           -1.2666     0.1428     1.3502 H       
  46 H46           -1.4049     1.7846     0.6747 H       
  47 H47            0.6379    -0.1096    -1.8232 H       
  48 H48            0.6401     1.2920    -0.7259 H       
  49 H49            0.7066    -0.3582    -0.0620 H       
  50 H50           -5.6229    -0.2149    -0.0068 H       
  51 H51           -5.3829    -1.9302     0.4038 H       
  52 H52           -5.7539     1.4722     1.7277 H       
  53 H53           -5.1887    -2.6410     2.7100 H       
  54 H54           -5.7487    -2.1689     5.0579 H       
  55 H55           -6.3115     1.9670     4.0715 H       
  56 H56           -6.6398     2.2066     5.8670 H       
  57 H57           -5.7810     0.3125     8.6886 H       
  58 H58           -8.5503     3.2291     7.2373 H       
  59 H59           -6.5125     0.7628    10.9937 H       
  60 H60           -9.2114     1.8607    12.0861 H       
  61 H61           -7.5511     2.3396    12.5130 H       
  62 H62           -8.7030     3.5579    11.9151 H       
  63 H63          -10.0910     3.7998    10.3751 H       
  64 H64          -10.0063     7.9362     6.4555 H       
  65 H65           -8.1217     6.3434     6.1890 H       
  66 H66          -11.5406     8.9689     6.6014 H       
  67 H67          -14.8711    10.2163     8.7383 H       
  68 H68          -14.5779     8.4168    10.3905 H       
  69 H69          -12.6909     6.8225    10.1332 H       
@<TRIPOS>BOND
   1    1    2 1
   2    1    7 1
   3    1    6 1
   4    1   38 1
   5    2    3 1
   6    2   39 1
   7    2   40 1
   8    3    4 1
   9    3   41 1
  10    3   42 1
  11    4    5 1
  12    4    8 1
  13    5    6 1
  14    5   43 1
  15    5   44 1
  16    6   45 1
  17    6   46 1
  18    7   47 1
  19    7   48 1
  20    7   49 1
  21    8    9 1
  22    8   50 1
  23    8   51 1
  24    9   10 ar
  25    9   11 ar
  26   10   14 ar
  27   10   52 1
  28   11   12 ar
  29   11   53 1
  30   12   13 ar
  31   12   54 1
  32   13   14 ar
  33   13   15 1
  34   14   55 1
  35   15   16 am
  36   15   17 2
  37   16   18 1
  38   16   56 1
  39   18   19 ar
  40   18   20 ar
  41   19   23 ar
  42   19   57 1
  43   20   21 ar
  44   20   58 1
  45   21   22 ar
  46   21   25 1
  47   22   23 ar
  48   22   24 1
  49   23   59 1
  50   24   60 1
  51   24   61 1
  52   24   62 1
  53   25   26 1
  54   25   63 1
  55   26   27 ar
  56   26   28 ar
  57   27   31 ar
  58   28   29 ar
  59   29   30 ar
  60   29   32 1
  61   30   31 ar
  62   30   64 1
  63   31   65 1
  64   32   33 ar
  65   32   37 ar
  66   33   34 ar
  67   33   66 1
  68   34   35 ar
  69   35   36 ar
  70   35   67 1
  71   36   37 ar
  72   36   68 1
  73   37   69 1

#	End of record

