#	Name: ASD01910775
#	Creating user name:	WinNT
#	Creation time:	15. 06. 2019 19:56

#	Modifying user name:	WinNT
#	Modification time:	15. 06. 2019 19:56

#	Program:	/corina/corina34_cracker 3.40 0067  02.08.2006

@<TRIPOS>MOLECULE
ASD01910775
  44   47    0    0    0
SMALL
NO_CHARGES


@<TRIPOS>ATOM
   1 C1             2.8535    -6.9385     2.0558 C.2     
   2 N2             2.7884    -6.1549     0.9171 N.3     
   3 C3             2.5802    -4.7421     1.2615 C.3     
   4 C4             2.6947    -3.8886    -0.0060 C.3     
   5 N5             1.7698    -4.4254    -1.0159 N.am    
   6 C6             1.8258    -5.8642    -1.3158 C.3     
   7 C7             1.7455    -6.6399     0.0032 C.3     
   8 C8             0.8946    -3.6201    -1.6499 C.2     
   9 C9             0.0608    -4.1537    -2.7483 C.ar    
  10 O10            0.7906    -2.4552    -1.3187 O.2     
  11 C11           -1.2736    -3.7595    -2.8689 C.ar    
  12 C12           -2.0547    -4.2569    -3.8937 C.ar    
  13 C13           -1.5237    -5.1461    -4.8058 C.ar    
  14 C14           -0.1891    -5.5497    -4.6976 C.ar    
  15 C15            0.6064    -5.0462    -3.6684 C.ar    
  16 C16            0.3608    -6.4732    -5.6439 C.1     
  17 C17            0.8116    -7.2303    -6.4197 C.1     
  18 C18            1.3614    -8.1537    -7.3660 C.ar    
  19 N19            2.6311    -8.5330    -7.2569 N.ar    
  20 C20            3.1732    -9.3803    -8.1073 C.ar    
  21 C21            2.4363    -9.9094    -9.1510 C.ar    
  22 C22            1.1062    -9.5409    -9.3030 C.ar    
  23 C23            0.5582    -8.6543    -8.3941 C.ar    
  24 N24            2.7483    -6.5211     3.2981 N.2     
  25 N25            2.8538    -7.5069     4.1144 N.2     
  26 N26            3.0309    -8.6074     3.4668 N.2     
  27 N27            3.0315    -8.2792     2.0997 N.pl3   
  28 H28            1.5887    -4.6161     1.6965 H       
  29 H29            3.3362    -4.4279     1.9811 H       
  30 H30            2.4287    -2.8565     0.2223 H       
  31 H31            3.7157    -3.9313    -0.3852 H       
  32 H32            0.9853    -6.1382    -1.9535 H       
  33 H33            2.7633    -6.0967    -1.8209 H       
  34 H34            1.8962    -7.7021    -0.1897 H       
  35 H35            0.7657    -6.4875     0.4558 H       
  36 H36           -1.6960    -3.0643    -2.1585 H       
  37 H37           -3.0861    -3.9486    -3.9815 H       
  38 H38           -2.1402    -5.5314    -5.6046 H       
  39 H39            1.6378    -5.3541    -3.5797 H       
  40 H40            4.2080    -9.6656    -7.9879 H       
  41 H41            2.8916   -10.6031    -9.8423 H       
  42 H42            0.5115    -9.9410   -10.1108 H       
  43 H43           -0.4733    -8.3467    -8.4826 H       
  44 H44            3.1423    -8.8834     1.3491 H       
@<TRIPOS>BOND
   1    1    2 1
   2    1   24 2
   3    1   27 1
   4    2    3 1
   5    2    7 1
   6    3    4 1
   7    3   28 1
   8    3   29 1
   9    4    5 1
  10    4   30 1
  11    4   31 1
  12    5    6 1
  13    5    8 am
  14    6    7 1
  15    6   32 1
  16    6   33 1
  17    7   34 1
  18    7   35 1
  19    8    9 1
  20    8   10 2
  21    9   11 ar
  22    9   15 ar
  23   11   12 ar
  24   11   36 1
  25   12   13 ar
  26   12   37 1
  27   13   14 ar
  28   13   38 1
  29   14   15 ar
  30   14   16 1
  31   15   39 1
  32   16   17 3
  33   17   18 1
  34   18   19 ar
  35   18   23 ar
  36   19   20 ar
  37   20   21 ar
  38   20   40 1
  39   21   22 ar
  40   21   41 1
  41   22   23 ar
  42   22   42 1
  43   23   43 1
  44   24   25 1
  45   25   26 2
  46   26   27 1
  47   27   44 1

#	End of record

