#	Name: ASD05513013
#	Creating user name:	WinNT
#	Creation time:	15. 06. 2019 21:01

#	Modifying user name:	WinNT
#	Modification time:	15. 06. 2019 21:01

#	Program:	/corina/corina34_cracker 3.40 0067  02.08.2006

@<TRIPOS>MOLECULE
ASD05513013
  27   28    0    0    0
SMALL
NO_CHARGES


@<TRIPOS>ATOM
   1 C1            -0.0108     1.3533     0.4079 C.2     
   2 C2             0.0021    -0.0041     0.0020 C.2     
   3 C3             1.1863    -0.6690    -0.1158 C.2     
   4 C4             2.5229    -0.0897    -0.3456 C.ar    
   5 C5             3.4224    -1.1675    -0.3933 C.ar    
   6 N6             2.7274    -2.3591    -0.2090 N.am    
   7 C7             1.4133    -2.1378    -0.0340 C.2     
   8 C8             2.9791     1.2192    -0.5049 C.ar    
   9 C9             4.3205     1.4561    -0.7104 C.ar    
  10 C10            5.2160     0.3922    -0.7586 C.ar    
  11 C11            4.7702    -0.9126    -0.6007 C.ar    
  12 O12            0.5623    -2.9851     0.1487 O.2     
  13 O13            1.0159     1.8871     0.7736 O.2     
  14 C14           -1.2983     2.1359     0.3797 C.3     
  15 O15            6.5364     0.6325    -0.9619 O.3     
  16 C16            6.9311     1.9971    -1.1171 C.3     
  17 F17            6.5914     2.7147     0.0347 F       
  18 F18            8.3142     2.0627    -1.3165 F       
  19 F19            6.2740     2.5498    -2.2216 F       
  20 H20           -0.9262    -0.5119    -0.2141 H       
  21 H21            3.1396    -3.2372    -0.2029 H       
  22 H22            2.2829     2.0440    -0.4676 H       
  23 H23            4.6771     2.4679    -0.8345 H       
  24 H24            5.4739    -1.7310    -0.6394 H       
  25 H25           -2.1048     1.4960     0.0218 H       
  26 H26           -1.5321     2.4873     1.3847 H       
  27 H27           -1.1894     2.9907    -0.2878 H       
@<TRIPOS>BOND
   1    1    2 1
   2    1   13 2
   3    1   14 1
   4    2    3 2
   5    2   20 1
   6    3    4 1
   7    3    7 1
   8    4    5 ar
   9    4    8 ar
  10    5    6 1
  11    5   11 ar
  12    6    7 am
  13    6   21 1
  14    7   12 2
  15    8    9 ar
  16    8   22 1
  17    9   10 ar
  18    9   23 1
  19   10   11 ar
  20   10   15 1
  21   11   24 1
  22   14   25 1
  23   14   26 1
  24   14   27 1
  25   15   16 1
  26   16   17 1
  27   16   18 1
  28   16   19 1

#	End of record

