#	Name: ASD01230559
#	Creating user name:	WinNT
#	Creation time:	15. 06. 2019 19:14

#	Modifying user name:	WinNT
#	Modification time:	15. 06. 2019 19:14

#	Program:	/corina/corina34_cracker 3.40 0067  02.08.2006

@<TRIPOS>MOLECULE
ASD01230559
  45   48    0    0    0
SMALL
NO_CHARGES


@<TRIPOS>ATOM
   1 S1            -0.0204     1.6504     0.0111 S.o2    
   2 N2             0.0021    -0.0041     0.0020 N.am    
   3 C3             1.0235    -0.6878    -0.4548 C.2     
   4 N4             2.1704    -0.1524    -0.9673 N.pl3   
   5 C5             2.3941     1.2846    -1.1457 C.3     
   6 C6             1.7500     2.0752    -0.0035 C.3     
   7 C7             0.8940    -2.1593    -0.3969 C.2     
   8 C8             1.9449    -2.9429    -0.8212 C.2     
   9 C9             3.1089    -2.3206    -1.2949 C.2     
  10 C10            3.1960    -0.9800    -1.3549 C.2     
  11 C11           -0.3490    -2.7831     0.1111 C.ar    
  12 C12           -0.3241    -3.5369     1.2850 C.ar    
  13 C13           -1.4838    -4.1159     1.7552 C.ar    
  14 C14           -2.6752    -3.9500     1.0619 C.ar    
  15 C15           -2.7039    -3.2006    -0.1065 C.ar    
  16 C16           -1.5494    -2.6138    -0.5798 C.ar    
  17 O17           -3.8160    -4.5229     1.5279 O.3     
  18 C18           -5.0062    -4.3119     0.7656 C.3     
  19 O19           -6.4743    -4.4153     2.7148 O.3     
  20 C20           -6.1778    -5.0277     1.4408 C.3     
  21 C21           -7.4673    -4.8514     0.6086 C.3     
  22 C22           -8.5808    -4.7003     1.6690 C.3     
  23 C23           -7.8324    -4.8031     3.0165 C.3     
  24 Cl24           4.4533    -3.2917    -1.8079 Cl      
  25 O25           -0.6346     2.0064    -1.2198 O.2     
  26 O26           -0.6110     1.9931     1.2573 O.2     
  27 H27            3.4658     1.4826    -1.1603 H       
  28 H28            1.9577     1.6014    -2.0930 H       
  29 H29            1.8741     3.1444    -0.1755 H       
  30 H30            2.2071     1.7951     0.9456 H       
  31 H31            1.8734    -4.0201    -0.7891 H       
  32 H32            4.1087    -0.5360    -1.7239 H       
  33 H33            0.6024    -3.6670     1.8244 H       
  34 H34           -1.4652    -4.6995     2.6637 H       
  35 H35           -3.6325    -3.0737    -0.6432 H       
  36 H36           -1.5733    -2.0276    -1.4866 H       
  37 H37           -5.2168    -3.2440     0.7088 H       
  38 H38           -4.8686    -4.7091    -0.2401 H       
  39 H39           -5.9506    -6.0856     1.5720 H       
  40 H40           -7.4039    -3.9554    -0.0089 H       
  41 H41           -7.6459    -5.7309    -0.0100 H       
  42 H42           -9.0679    -3.7296     1.5758 H       
  43 H43           -9.3099    -5.5051     1.5747 H       
  44 H44           -7.8608    -5.8270     3.3891 H       
  45 H45           -8.2687    -4.1207     3.7459 H       
@<TRIPOS>BOND
   1    1    2 am
   2    1    6 1
   3    1   25 2
   4    1   26 2
   5    2    3 2
   6    3    4 1
   7    3    7 1
   8    4    5 1
   9    4   10 1
  10    5    6 1
  11    5   27 1
  12    5   28 1
  13    6   29 1
  14    6   30 1
  15    7    8 2
  16    7   11 1
  17    8    9 1
  18    8   31 1
  19    9   10 2
  20    9   24 1
  21   10   32 1
  22   11   12 ar
  23   11   16 ar
  24   12   13 ar
  25   12   33 1
  26   13   14 ar
  27   13   34 1
  28   14   15 ar
  29   14   17 1
  30   15   16 ar
  31   15   35 1
  32   16   36 1
  33   17   18 1
  34   18   20 1
  35   18   37 1
  36   18   38 1
  37   19   20 1
  38   19   23 1
  39   20   21 1
  40   20   39 1
  41   21   22 1
  42   21   40 1
  43   21   41 1
  44   22   23 1
  45   22   42 1
  46   22   43 1
  47   23   44 1
  48   23   45 1

#	End of record

