#	Name: ASD05663001
#	Creating user name:	WinNT
#	Creation time:	15. 06. 2019 21:01

#	Modifying user name:	WinNT
#	Modification time:	15. 06. 2019 21:01

#	Program:	/corina/corina34_cracker 3.40 0067  02.08.2006

@<TRIPOS>MOLECULE
ASD05663001
  50   50    0    0    0
SMALL
NO_CHARGES


@<TRIPOS>ATOM
   1 C1            -0.2200     0.5926    -0.6595 C.3     
   2 C2            -1.3047     1.2496    -1.5216 C.3     
   3 C3            -1.0276     2.7528    -1.5896 C.3     
   4 C4             0.4050     2.9976    -1.9650 C.2     
   5 C5             1.3526     2.0793    -1.8808 C.2     
   6 C6             1.1121     0.6752    -1.4077 C.3     
   7 C7             2.2466     0.2540    -0.4715 C.3     
   8 C8             1.0764    -0.2670    -2.6126 C.3     
   9 C9             0.7845     4.3670    -2.4666 C.3     
  10 C10            2.6703     2.4411    -2.2593 C.2     
  11 C11            3.2971     3.4725    -1.6356 C.2     
  12 C12            4.5593     3.9023    -2.0831 C.2     
  13 C13            5.1886     4.9379    -1.4568 C.2     
  14 C14            4.5768     5.5743    -0.3664 C.2     
  15 C15            5.2069     6.6110     0.2605 C.2     
  16 C16            4.5952     7.2474     1.3509 C.2     
  17 C17            5.2244     8.2828     1.9770 C.2     
  18 C18            5.2164     3.2188    -3.2544 C.3     
  19 C19            3.2428     6.7868     1.8304 C.3     
  20 C20            4.6845     8.8229     3.1619 C.2     
  21 O21            3.7263     8.2906     3.6921 O.2     
  22 O22            5.2299     9.9306     3.7089 O.3     
  23 H23           -0.1391     1.1192     0.2914 H       
  24 H24           -0.4761    -0.4520    -0.4821 H       
  25 H25           -1.2801     0.8270    -2.5261 H       
  26 H26           -2.2831     1.0776    -1.0729 H       
  27 H27           -1.6794     3.2071    -2.3359 H       
  28 H28           -1.2279     3.2016    -0.6167 H       
  29 H29            2.3381     0.9788     0.3374 H       
  30 H30            2.0281    -0.7294    -0.0553 H       
  31 H31            3.1819     0.2126    -1.0298 H       
  32 H32            2.0290    -0.2185    -3.1402 H       
  33 H33            0.9018    -1.2873    -2.2711 H       
  34 H34            0.2729     0.0335    -3.2851 H       
  35 H35           -0.1062     4.9925    -2.5244 H       
  36 H36            1.5020     4.8189    -1.7817 H       
  37 H37            1.2323     4.2801    -3.4566 H       
  38 H38            3.1756     1.8969    -3.0434 H       
  39 H39            2.8262     3.9624    -0.7962 H       
  40 H40            6.1579     5.2679    -1.8005 H       
  41 H41            3.6076     5.2443    -0.0228 H       
  42 H42            6.1761     6.9411    -0.0831 H       
  43 H43            6.1364     8.6889     1.5651 H       
  44 H44            4.9217     3.7170    -4.1779 H       
  45 H45            6.2996     3.2695    -3.1438 H       
  46 H46            4.9032     2.1753    -3.2886 H       
  47 H47            3.3691     6.0860     2.6556 H       
  48 H48            2.6652     7.6469     2.1693 H       
  49 H49            2.7158     6.2945     1.0130 H       
  50 H50            4.7920    10.2257     4.5190 H       
@<TRIPOS>BOND
   1    1    2 1
   2    1    6 1
   3    1   23 1
   4    1   24 1
   5    2    3 1
   6    2   25 1
   7    2   26 1
   8    3    4 1
   9    3   27 1
  10    3   28 1
  11    4    5 2
  12    4    9 1
  13    5    6 1
  14    5   10 1
  15    6    7 1
  16    6    8 1
  17    7   29 1
  18    7   30 1
  19    7   31 1
  20    8   32 1
  21    8   33 1
  22    8   34 1
  23    9   35 1
  24    9   36 1
  25    9   37 1
  26   10   11 2
  27   10   38 1
  28   11   12 1
  29   11   39 1
  30   12   13 2
  31   12   18 1
  32   13   14 1
  33   13   40 1
  34   14   15 2
  35   14   41 1
  36   15   16 1
  37   15   42 1
  38   16   17 2
  39   16   19 1
  40   17   20 1
  41   17   43 1
  42   18   44 1
  43   18   45 1
  44   18   46 1
  45   19   47 1
  46   19   48 1
  47   19   49 1
  48   20   21 2
  49   20   22 1
  50   22   50 1

#	End of record

