#	Name: ASD01915036
#	Creating user name:	WinNT
#	Creation time:	15. 06. 2019 20:04

#	Modifying user name:	WinNT
#	Modification time:	15. 06. 2019 20:04

#	Program:	/corina/corina34_cracker 3.40 0067  02.08.2006

@<TRIPOS>MOLECULE
ASD01915036
  29   31    0    0    0
SMALL
NO_CHARGES


@<TRIPOS>ATOM
   1 C1            -0.0179     1.4724     0.0101 C.2     
   2 C2             0.0021    -0.0041     0.0020 C.ar    
   3 C3             1.2196    -0.6885    -0.0133 C.ar    
   4 C4             1.2324    -2.0667    -0.0203 C.ar    
   5 C5             0.0396    -2.7737    -0.0127 C.ar    
   6 C6            -1.1719    -2.0994     0.0025 C.ar    
   7 C7            -1.1964    -0.7214     0.0155 C.ar    
   8 O8             1.0264     2.0945     0.0035 O.2     
   9 N9            -1.1942     2.1304     0.0193 N.am    
  10 F10            0.0580    -4.1246    -0.0206 F       
  11 C11           -1.2129     3.5137     0.0269 C.2     
  12 N12           -0.1061     4.3129     0.0260 N.pl3   
  13 C13           -0.5471     5.6251     0.0352 C.ar    
  14 C14           -1.9509     5.5650     0.0416 C.ar    
  15 N15           -2.2945     4.2508     0.0304 N.2     
  16 C16           -2.6898     6.7506     0.0515 C.ar    
  17 C17           -2.0371     7.9631     0.0550 C.ar    
  18 C18           -0.6513     8.0166     0.0483 C.ar    
  19 C19            0.0931     6.8549     0.0393 C.ar    
  20 H20            2.1492    -0.1387    -0.0199 H       
  21 H21            2.1732    -2.5969    -0.0322 H       
  22 H22           -2.0980    -2.6551     0.0080 H       
  23 H23           -2.1405    -0.1972     0.0318 H       
  24 H24           -2.0275     1.6340     0.0205 H       
  25 H25            0.8175     4.0164     0.0203 H       
  26 H26           -3.7692     6.7163     0.0561 H       
  27 H27           -2.6087     8.8793     0.0628 H       
  28 H28           -0.1515     8.9740     0.0504 H       
  29 H29            1.1720     6.9035     0.0347 H       
@<TRIPOS>BOND
   1    1    2 1
   2    1    8 2
   3    1    9 am
   4    2    3 ar
   5    2    7 ar
   6    3    4 ar
   7    3   20 1
   8    4    5 ar
   9    4   21 1
  10    5    6 ar
  11    5   10 1
  12    6    7 ar
  13    6   22 1
  14    7   23 1
  15    9   11 1
  16    9   24 1
  17   11   12 1
  18   11   15 2
  19   12   13 1
  20   12   25 1
  21   13   14 ar
  22   13   19 ar
  23   14   15 1
  24   14   16 ar
  25   16   17 ar
  26   16   26 1
  27   17   18 ar
  28   17   27 1
  29   18   19 ar
  30   18   28 1
  31   19   29 1

#	End of record

