#	Name: ASD01840273
#	Creating user name:	WinNT
#	Creation time:	15. 06. 2019 19:37

#	Modifying user name:	WinNT
#	Modification time:	15. 06. 2019 19:37

#	Program:	/corina/corina34_cracker 3.40 0067  02.08.2006

@<TRIPOS>MOLECULE
ASD01840273
  42   45    0    0    0
SMALL
NO_CHARGES


@<TRIPOS>ATOM
   1 C1             1.7187     1.2820     0.2338 C.3     
   2 C2             1.2770    -0.1568     0.1586 C.ar    
   3 N3             1.3876    -0.8222    -0.9778 N.ar    
   4 N4             1.0291    -2.0455    -1.0998 N.ar    
   5 C5             0.5149    -2.7425    -0.0844 C.ar    
   6 S6            -0.0418    -4.4063    -0.0084 S.3     
   7 C7            -0.4827    -4.2708     1.6871 C.2     
   8 C8            -1.0311    -5.0293     2.7530 C.2     
   9 N9            -1.4402    -6.3668     2.6798 N.pl3   
  10 C10           -1.9918    -7.0300     3.8640 C.3     
  11 C11           -3.5071    -7.2882     3.7804 C.3     
  12 N12           -3.1507    -8.5920     3.1879 N.am    
  13 C13           -1.8312    -8.5609     3.8482 C.3     
  14 S14           -3.9217    -9.6607     2.1851 S.o2    
  15 C15           -3.4529    -9.1325     0.5142 C.3     
  16 O16           -3.3344   -10.9173     2.4940 O.2     
  17 O17           -5.3036    -9.4218     2.4142 O.2     
  18 N18           -1.0903    -4.2696     3.8149 N.2     
  19 N19           -0.5921    -3.0035     3.4963 N.pl3   
  20 C20           -0.4865    -1.8631     4.4099 C.3     
  21 C21           -0.2162    -3.0181     2.1641 C.2     
  22 C22            0.3584    -2.1252     1.1581 C.ar    
  23 C23            0.7633    -0.7784     1.2771 C.ar    
  24 C24            0.6337    -0.0409     2.5850 C.3     
  25 H25            2.7704     1.3248     0.5171 H       
  26 H26            1.5850     1.7545    -0.7393 H       
  27 H27            1.1203     1.8074     0.9781 H       
  28 H28           -1.3584    -6.8541     1.8451 H       
  29 H29           -1.6750    -6.5651     4.7976 H       
  30 H30           -3.9939    -7.3657     4.7526 H       
  31 H31           -4.0291    -6.6217     3.0938 H       
  32 H32           -1.0152    -8.9106     3.2159 H       
  33 H33           -1.8256    -9.0123     4.8403 H       
  34 H34           -2.3693    -9.1836     0.4076 H       
  35 H35           -3.9215    -9.7886    -0.2192 H       
  36 H36           -3.7861    -8.1077     0.3503 H       
  37 H37            0.5266    -1.8094     4.8084 H       
  38 H38           -0.7142    -0.9435     3.8709 H       
  39 H39           -1.1935    -1.9880     5.2301 H       
  40 H40           -0.3850     0.3317     2.6925 H       
  41 H41            0.8616    -0.7182     3.4081 H       
  42 H42            1.3306     0.7970     2.6002 H       
@<TRIPOS>BOND
   1    1    2 1
   2    1   25 1
   3    1   26 1
   4    1   27 1
   5    2   23 ar
   6    2    3 ar
   7    3    4 ar
   8    4    5 ar
   9    5   22 ar
  10    5    6 1
  11    6    7 1
  12    7   21 2
  13    7    8 1
  14    8    9 1
  15    8   18 2
  16    9   10 1
  17    9   28 1
  18   10   13 1
  19   10   11 1
  20   10   29 1
  21   11   12 1
  22   11   30 1
  23   11   31 1
  24   12   13 1
  25   12   14 am
  26   13   32 1
  27   13   33 1
  28   14   15 1
  29   14   16 2
  30   14   17 2
  31   15   34 1
  32   15   35 1
  33   15   36 1
  34   18   19 1
  35   19   20 1
  36   19   21 1
  37   20   37 1
  38   20   38 1
  39   20   39 1
  40   21   22 1
  41   22   23 ar
  42   23   24 1
  43   24   40 1
  44   24   41 1
  45   24   42 1

#	End of record

