#	Name: ASD01914012
#	Creating user name:	WinNT
#	Creation time:	15. 06. 2019 20:02

#	Modifying user name:	WinNT
#	Modification time:	15. 06. 2019 20:02

#	Program:	/corina/corina34_cracker 3.40 0067  02.08.2006

@<TRIPOS>MOLECULE
ASD01914012
  39   41    0    0    0
SMALL
NO_CHARGES


@<TRIPOS>ATOM
   1 C1            -0.0142     1.3729     0.0941 C.ar    
   2 C2             0.0057    -0.0094     0.1171 C.ar    
   3 C3             1.2115    -0.6860     0.1147 C.ar    
   4 C4             2.3826     1.4051     0.0660 C.ar    
   5 C5             1.1714     2.0816     0.0685 C.ar    
   6 O6             3.5502     2.0999     0.0413 O.3     
   7 C7             4.7589     1.3376     0.0402 C.3     
   8 C8             5.9416     2.2712     0.0114 C.ar    
   9 N9             7.1626     1.7716     0.0059 N.ar    
  10 C10            8.2296     2.5430    -0.0190 C.ar    
  11 C11            8.1006     3.9322    -0.0400 C.ar    
  12 C12            6.8171     4.4923    -0.0348 C.ar    
  13 C13            5.7290     3.6381    -0.0145 C.ar    
  14 C14            9.2983     4.7979    -0.0669 C.2     
  15 N15           10.5282     4.2468    -0.0712 N.am    
  16 O16            9.1740     6.0071    -0.0851 O.2     
  17 C17           11.6603     5.0625    -0.1819 C.ar    
  18 C18            2.3998     0.0180     0.0892 C.ar    
  19 C19           11.6071     6.3860     0.2323 C.ar    
  20 C20           12.7264     7.1888     0.1223 C.ar    
  21 C21           13.8991     6.6760    -0.4002 C.ar    
  22 C22           13.9573     5.3576    -0.8144 C.ar    
  23 C23           12.8430     4.5469    -0.7020 C.ar    
  24 F24           12.8995     3.2591    -1.1066 F       
  25 H25           -0.9574     1.8990     0.0915 H       
  26 H26           -0.9223    -0.5616     0.1375 H       
  27 H27            1.2244    -1.7657     0.1331 H       
  28 H28            1.1553     3.1613     0.0501 H       
  29 H29            4.8023     0.7240     0.9400 H       
  30 H30            4.7821     0.6946    -0.8396 H       
  31 H31            9.2130     2.0965    -0.0227 H       
  32 H32            6.6802     5.5635    -0.0506 H       
  33 H33            4.7243     4.0342    -0.0099 H       
  34 H34           10.6289     3.2848     0.0023 H       
  35 H35            3.3414    -0.5109     0.0873 H       
  36 H36           10.6915     6.7883     0.6400 H       
  37 H37           12.6850     8.2187     0.4446 H       
  38 H38           14.7719     7.3064    -0.4854 H       
  39 H39           14.8750     4.9601    -1.2221 H       
@<TRIPOS>BOND
   1    1    2 ar
   2    1    5 ar
   3    1   25 1
   4    2    3 ar
   5    2   26 1
   6    3   18 ar
   7    3   27 1
   8    4    5 ar
   9    4    6 1
  10    4   18 ar
  11    5   28 1
  12    6    7 1
  13    7    8 1
  14    7   29 1
  15    7   30 1
  16    8    9 ar
  17    8   13 ar
  18    9   10 ar
  19   10   11 ar
  20   10   31 1
  21   11   12 ar
  22   11   14 1
  23   12   13 ar
  24   12   32 1
  25   13   33 1
  26   14   15 am
  27   14   16 2
  28   15   17 1
  29   15   34 1
  30   17   19 ar
  31   17   23 ar
  32   18   35 1
  33   19   20 ar
  34   19   36 1
  35   20   21 ar
  36   20   37 1
  37   21   22 ar
  38   21   38 1
  39   22   23 ar
  40   22   39 1
  41   23   24 1

#	End of record

