#	Name: ASD02508369
#	Creating user name:	WinNT
#	Creation time:	15. 06. 2019 20:24

#	Modifying user name:	WinNT
#	Modification time:	15. 06. 2019 20:24

#	Program:	/corina/corina34_cracker 3.40 0067  02.08.2006

@<TRIPOS>MOLECULE
ASD02508369
  37   39    0    0    0
SMALL
NO_CHARGES


@<TRIPOS>ATOM
   1 C1            -0.1933     1.7614     0.2769 C.2     
   2 C2            -0.1747     0.3617     0.4444 C.2     
   3 C3             1.1133    -0.0341     0.4034 C.2     
   4 N4             1.8937     1.0718     0.2161 N.pl3   
   5 C5             1.0841     2.1698     0.1395 C.2     
   6 C6             3.2884     1.0787     0.1195 C.ar    
   7 C7             4.0289     1.9580     0.9022 C.ar    
   8 N8             3.8919     0.2449    -0.7115 N.ar    
   9 C9             5.2053     0.2182    -0.8331 C.ar    
  10 C10            6.0030     1.0668    -0.0911 C.ar    
  11 C11            5.4098     1.9538     0.7966 C.ar    
  12 S12            1.6907    -1.6911     0.5639 S.o2    
  13 O13            1.6064    -2.2725    -0.7299 O.2     
  14 O14            2.8989    -1.6245     1.3090 O.2     
  15 N15            0.6006    -2.5003     1.5122 N.am    
  16 C16            0.3848    -2.0936     2.8308 C.ar    
  17 C17           -0.9092    -1.9962     3.3262 C.ar    
  18 C18            1.2470    -1.3891     4.9556 C.ar    
  19 C19            1.4641    -1.7912     3.6513 C.ar    
  20 C20           -1.1198    -1.5937     4.6307 C.ar    
  21 C21           -0.0444    -1.2878     5.4438 C.ar    
  22 Cl22           3.2332     3.0463     1.9959 Cl      
  23 Cl23           2.5947    -1.0113     5.9825 Cl      
  24 C24            7.5021     1.0263    -0.2395 C.3     
  25 F25            7.8513     0.0538    -1.1826 F       
  26 F26            7.9624     2.2765    -0.6664 F       
  27 F27            8.0843     0.7109     0.9929 F       
  28 H28           -1.0707     2.3908     0.2574 H       
  29 H29           -1.0351    -0.2767     0.5808 H       
  30 H30            1.4110     3.1888    -0.0063 H       
  31 H31            5.6626    -0.4767    -1.5219 H       
  32 H32            6.0111     2.6278     1.3886 H       
  33 H33            0.1118    -3.2567     1.1518 H       
  34 H34           -1.7501    -2.2346     2.6918 H       
  35 H35            2.4717    -1.8706     3.2706 H       
  36 H36           -2.1259    -1.5176     5.0158 H       
  37 H37           -0.2119    -0.9733     6.4633 H       
@<TRIPOS>BOND
   1    1    2 1
   2    1    5 2
   3    1   28 1
   4    2    3 2
   5    2   29 1
   6    3    4 1
   7    3   12 1
   8    4    5 1
   9    4    6 1
  10    5   30 1
  11    6    7 ar
  12    6    8 ar
  13    7   22 1
  14    7   11 ar
  15    8    9 ar
  16    9   10 ar
  17    9   31 1
  18   10   11 ar
  19   10   24 1
  20   11   32 1
  21   12   13 2
  22   12   14 2
  23   12   15 am
  24   15   16 1
  25   15   33 1
  26   16   17 ar
  27   16   19 ar
  28   17   20 ar
  29   17   34 1
  30   18   19 ar
  31   18   23 1
  32   18   21 ar
  33   19   35 1
  34   20   21 ar
  35   20   36 1
  36   21   37 1
  37   24   25 1
  38   24   26 1
  39   24   27 1

#	End of record

