#	Name: ASD06340080
#	Creating user name:	WinNT
#	Creation time:	15. 06. 2019 21:06

#	Modifying user name:	WinNT
#	Modification time:	15. 06. 2019 21:06

#	Program:	/corina/corina34_cracker 3.40 0067  02.08.2006

@<TRIPOS>MOLECULE
ASD06340080
  32   34    0    0    0
SMALL
NO_CHARGES


@<TRIPOS>ATOM
   1 S1            -0.0210     1.6939     0.0114 S.3     
   2 N2             0.0021    -0.0041     0.0020 N.am    
   3 C3             1.2962    -0.3594    -0.0122 C.2     
   4 N4             2.1856     0.6226    -0.0155 N.am    
   5 C5             1.6912     1.8721    -0.0040 C.2     
   6 O6             1.6365    -1.5276    -0.0214 O.2     
   7 O7             2.3224     2.9128    -0.0052 O.2     
   8 C8             3.6269     0.3610    -0.0302 C.3     
   9 C9             4.1080     0.2785    -1.4559 C.ar    
  10 C10            4.5424     1.4190    -2.1055 C.ar    
  11 C11            4.9844     1.3437    -3.4138 C.ar    
  12 C12            4.9915     0.1255    -4.0725 C.ar    
  13 C13            4.5565    -1.0144    -3.4211 C.ar    
  14 C14            4.1200    -0.9382    -2.1116 C.ar    
  15 Cl15           5.5455     0.0294    -5.7149 Cl      
  16 Cl16           5.5296     2.7755    -4.2302 Cl      
  17 C17           -1.1035    -0.8590     0.0084 C.ar    
  18 C18           -2.3257    -0.4204    -0.4857 C.ar    
  19 C19           -3.4161    -1.2678    -0.4779 C.ar    
  20 C20           -3.2926    -2.5515     0.0215 C.ar    
  21 C21           -2.0775    -2.9914     0.5141 C.ar    
  22 C22           -0.9815    -2.1513     0.5036 C.ar    
  23 H23            4.1482     1.1691     0.4830 H       
  24 H24            3.8302    -0.5822     0.4770 H       
  25 H25            4.5364     2.3687    -1.5914 H       
  26 H26            4.5618    -1.9648    -3.9342 H       
  27 H27            3.7843    -1.8293    -1.6019 H       
  28 H28           -2.4230     0.5822    -0.8752 H       
  29 H29           -4.3664    -0.9275    -0.8618 H       
  30 H30           -4.1471    -3.2119     0.0271 H       
  31 H31           -1.9847    -3.9944     0.9037 H       
  32 H32           -0.0317    -2.4971     0.8840 H       
@<TRIPOS>BOND
   1    1    2 1
   2    1    5 1
   3    2    3 am
   4    2   17 1
   5    3    4 am
   6    3    6 2
   7    4    5 am
   8    4    8 1
   9    5    7 2
  10    8    9 1
  11    8   23 1
  12    8   24 1
  13    9   10 ar
  14    9   14 ar
  15   10   11 ar
  16   10   25 1
  17   11   12 ar
  18   11   16 1
  19   12   13 ar
  20   12   15 1
  21   13   14 ar
  22   13   26 1
  23   14   27 1
  24   17   18 ar
  25   17   22 ar
  26   18   19 ar
  27   18   28 1
  28   19   20 ar
  29   19   29 1
  30   20   21 ar
  31   20   30 1
  32   21   22 ar
  33   21   31 1
  34   22   32 1

#	End of record

