#	Name: ASD01810074
#	Creating user name:	WinNT
#	Creation time:	15. 06. 2019 19:23

#	Modifying user name:	WinNT
#	Modification time:	15. 06. 2019 19:23

#	Program:	/corina/corina34_cracker 3.40 0067  02.08.2006

@<TRIPOS>MOLECULE
ASD01810074
  40   43    0    0    0
SMALL
NO_CHARGES


@<TRIPOS>ATOM
   1 C1            -1.7107     1.1719    -1.8206 C.ar    
   2 C2            -1.2199    -0.0242    -1.3251 C.ar    
   3 C3             0.1412    -0.2264    -1.1896 C.ar    
   4 C4             1.0351     0.7729    -1.5501 C.ar    
   5 C5             0.5346     1.9855    -2.0526 C.ar    
   6 C6            -0.8398     2.1789    -2.1856 C.ar    
   7 N7             2.4268     0.8209    -1.5131 N.am    
   8 C8             2.8900     1.9998    -1.9632 C.2     
   9 C9             1.7040     2.8356    -2.3435 C.2     
  10 O10            1.7062     3.9631    -2.7922 O.2     
  11 O11            4.0549     2.3282    -2.0462 O.2     
  12 C12            3.2780    -0.2748    -1.0430 C.3     
  13 C13            3.6231    -1.1752    -2.2011 C.ar    
  14 C14            4.7553    -0.9268    -2.9549 C.ar    
  15 C15            5.0736    -1.7503    -4.0173 C.ar    
  16 C16            4.2563    -2.8279    -4.3274 C.ar    
  17 C17            3.1210    -3.0753    -3.5690 C.ar    
  18 C18            2.8100    -2.2517    -2.5045 C.ar    
  19 O19            4.5670    -3.6393    -5.3722 O.3     
  20 C20            5.7425    -3.4245    -6.0191 C.ar    
  21 C21            6.9007    -4.0521    -5.5829 C.ar    
  22 C22            8.0944    -3.8320    -6.2424 C.ar    
  23 C23            8.1358    -2.9871    -7.3362 C.ar    
  24 C24            6.9833    -2.3602    -7.7726 C.ar    
  25 C25            5.7858    -2.5816    -7.1205 C.ar    
  26 H26           -2.7759     1.3156    -1.9258 H       
  27 H27           -1.9073    -0.8073    -1.0412 H       
  28 H28            0.5101    -1.1644    -0.8016 H       
  29 H29           -1.2213     3.1122    -2.5726 H       
  30 H30            4.1934     0.1340    -0.6153 H       
  31 H31            2.7463    -0.8477    -0.2832 H       
  32 H32            5.3910    -0.0879    -2.7132 H       
  33 H33            5.9577    -1.5554    -4.6063 H       
  34 H34            2.4833    -3.9134    -3.8082 H       
  35 H35            1.9267    -2.4440    -1.9136 H       
  36 H36            6.8689    -4.7118    -4.7284 H       
  37 H37            8.9961    -4.3199    -5.9030 H       
  38 H38            9.0701    -2.8164    -7.8503 H       
  39 H39            7.0185    -1.7002    -8.6268 H       
  40 H40            4.8858    -2.0919    -7.4620 H       
@<TRIPOS>BOND
   1    1    2 ar
   2    1    6 ar
   3    1   26 1
   4    2    3 ar
   5    2   27 1
   6    3    4 ar
   7    3   28 1
   8    4    5 ar
   9    4    7 1
  10    5    6 ar
  11    5    9 1
  12    6   29 1
  13    7    8 am
  14    7   12 1
  15    8    9 1
  16    8   11 2
  17    9   10 2
  18   12   13 1
  19   12   30 1
  20   12   31 1
  21   13   14 ar
  22   13   18 ar
  23   14   15 ar
  24   14   32 1
  25   15   16 ar
  26   15   33 1
  27   16   17 ar
  28   16   19 1
  29   17   18 ar
  30   17   34 1
  31   18   35 1
  32   19   20 1
  33   20   21 ar
  34   20   25 ar
  35   21   22 ar
  36   21   36 1
  37   22   23 ar
  38   22   37 1
  39   23   24 ar
  40   23   38 1
  41   24   25 ar
  42   24   39 1
  43   25   40 1

#	End of record

