#	Name: ASD01910064
#	Creating user name:	WinNT
#	Creation time:	15. 06. 2019 19:55

#	Modifying user name:	WinNT
#	Modification time:	15. 06. 2019 19:55

#	Program:	/corina/corina34_cracker 3.40 0067  02.08.2006

@<TRIPOS>MOLECULE
ASD01910064
  49   52    0    0    0
SMALL
NO_CHARGES


@<TRIPOS>ATOM
   1 C1            -0.0158     1.3124     0.0093 C.2     
   2 N2             0.0021    -0.0041     0.0020 N.2     
   3 N3            -1.3214    -0.4624     0.0127 N.pl3   
   4 C4            -2.1427     0.6240     0.0267 C.2     
   5 C5            -1.3588     1.7338     0.0305 C.2     
   6 C6             1.1743     2.1988     0.0027 C.ar    
   7 C7             2.4549     1.6499    -0.0130 C.ar    
   8 C8             3.5583     2.4790    -0.0191 C.ar    
   9 C9             3.3945     3.8525    -0.0091 C.ar    
  10 C10            2.1256     4.4028     0.0065 C.ar    
  11 C11            1.0151     3.5831     0.0064 C.ar    
  12 C12           -1.7288    -1.8026     0.0089 C.ar    
  13 N13           -3.5370     0.6013     0.0397 N.am    
  14 C14           -4.2296     1.7574     0.0529 C.2     
  15 C15           -5.7364     1.7329     0.0669 C.3     
  16 O16           -3.6403     2.8175     0.0534 O.2     
  17 C17           -0.9960    -2.7506    -0.6931 C.ar    
  18 C18           -1.4003    -4.0712    -0.6950 C.ar    
  19 C19           -2.5335    -4.4499     0.0012 C.ar    
  20 C20           -3.2653    -3.5083     0.7012 C.ar    
  21 C21           -2.8631    -2.1871     0.7117 C.ar    
  22 C22           -6.2696     3.1669     0.0802 C.3     
  23 C23           -7.8043     3.1596    -0.0314 C.3     
  24 C24           -8.3424     3.8337     1.2477 C.3     
  25 C25           -7.1686     4.7204     1.7323 C.3     
  26 C26           -5.9287     3.8451     1.4232 C.3     
  27 H27           -1.7045     2.7569     0.0412 H       
  28 H28            2.5839     0.5777    -0.0201 H       
  29 H29            4.5513     2.0547    -0.0312 H       
  30 H30            4.2607     4.4976    -0.0132 H       
  31 H31            2.0034     5.4758     0.0146 H       
  32 H32            0.0248     4.0138     0.0181 H       
  33 H33           -4.0083    -0.2465     0.0393 H       
  34 H34           -6.0997     1.2184    -0.8226 H       
  35 H35           -6.0829     1.2082     0.9572 H       
  36 H36           -0.1111    -2.4554    -1.2374 H       
  37 H37           -0.8310    -4.8088    -1.2411 H       
  38 H38           -2.8478    -5.4831    -0.0021 H       
  39 H39           -4.1501    -3.8071     1.2437 H       
  40 H40           -3.4350    -1.4522     1.2586 H       
  41 H41           -5.8380     3.7332    -0.7451 H       
  42 H42           -8.1175     3.7231    -0.9103 H       
  43 H43           -8.1692     2.1345    -0.0950 H       
  44 H44           -9.2140     4.4466     1.0181 H       
  45 H45           -8.5894     3.0837     1.9991 H       
  46 H46           -7.1322     5.6539     1.1706 H       
  47 H47           -7.2472     4.9148     2.8019 H       
  48 H48           -5.7859     3.0970     2.2029 H       
  49 H49           -5.0388     4.4664     1.3217 H       
@<TRIPOS>BOND
   1    1    2 2
   2    1    6 1
   3    1    5 1
   4    2    3 1
   5    3    4 1
   6    3   12 1
   7    4    5 2
   8    4   13 1
   9    5   27 1
  10    6    7 ar
  11    6   11 ar
  12    7    8 ar
  13    7   28 1
  14    8    9 ar
  15    8   29 1
  16    9   10 ar
  17    9   30 1
  18   10   11 ar
  19   10   31 1
  20   11   32 1
  21   12   17 ar
  22   12   21 ar
  23   13   14 am
  24   13   33 1
  25   14   15 1
  26   14   16 2
  27   15   22 1
  28   15   34 1
  29   15   35 1
  30   17   18 ar
  31   17   36 1
  32   18   19 ar
  33   18   37 1
  34   19   20 ar
  35   19   38 1
  36   20   21 ar
  37   20   39 1
  38   21   40 1
  39   22   23 1
  40   22   26 1
  41   22   41 1
  42   23   24 1
  43   23   42 1
  44   23   43 1
  45   24   25 1
  46   24   44 1
  47   24   45 1
  48   25   26 1
  49   25   46 1
  50   25   47 1
  51   26   48 1
  52   26   49 1

#	End of record

