#	Name: ASD05060049
#	Creating user name:	WinNT
#	Creation time:	15. 06. 2019 20:56

#	Modifying user name:	WinNT
#	Modification time:	15. 06. 2019 20:56

#	Program:	/corina/corina34_cracker 3.40 0067  02.08.2006

@<TRIPOS>MOLECULE
ASD05060049
  40   42    0    0    0
SMALL
NO_CHARGES


@<TRIPOS>ATOM
   1 C1             0.1402     1.7296     0.1016 C.2     
   2 N2            -0.0795     0.4433     0.0891 N.2     
   3 C3             1.0916    -0.2109     0.0165 C.2     
   4 C4             2.0962     0.7471    -0.0177 C.2     
   5 N5             1.4646     1.9639     0.0375 N.pl3   
   6 C6             1.2764    -1.6771    -0.0202 C.2     
   7 O7             2.3956    -2.1473    -0.0863 O.2     
   8 N8             0.2041    -2.4926     0.0196 N.am    
   9 C9             3.5468     0.5058    -0.0967 C.2     
  10 O10            4.1263     0.6266    -1.1590 O.2     
  11 N11            4.2321     0.1512     1.0083 N.am    
  12 C12            5.6958     0.0105     0.9761 C.3     
  13 C13            6.2888     0.8277     2.1288 C.3     
  14 N14            5.6535     0.4225     3.3897 N.3     
  15 C15            4.2142     0.7163     3.3797 C.3     
  16 C16            3.5367    -0.0996     2.2798 C.3     
  17 C17            0.3738    -3.8780    -0.0911 C.ar    
  18 C18           -0.6604    -4.6715    -0.5843 C.ar    
  19 C19           -0.4866    -6.0413    -0.6920 C.ar    
  20 C20            0.7107    -6.6189    -0.3107 C.ar    
  21 C21            1.7370    -5.8326     0.1786 C.ar    
  22 C22            1.5736    -4.4640     0.2844 C.ar    
  23 O23           -1.8372    -4.1022    -0.9584 O.3     
  24 H24           -0.6244     2.4907     0.1511 H       
  25 H25            1.8937     2.8338     0.0314 H       
  26 H26           -0.6851    -2.1198     0.1250 H       
  27 H27            5.9655    -1.0390     1.0946 H       
  28 H28            6.0788     0.3849     0.0268 H       
  29 H29            7.3622     0.6474     2.1879 H       
  30 H30            6.1068     1.8881     1.9541 H       
  31 H31            5.8219    -0.5536     3.5822 H       
  32 H32            3.7829     0.4551     4.3461 H       
  33 H33            4.0611     1.7782     3.1877 H       
  34 H34            2.4930     0.2021     2.1921 H       
  35 H35            3.5949    -1.1598     2.5261 H       
  36 H36           -1.2865    -6.6586    -1.0736 H       
  37 H37            0.8441    -7.6873    -0.3951 H       
  38 H38            2.6702    -6.2882     0.4751 H       
  39 H39            2.3786    -3.8516     0.6632 H       
  40 H40           -1.8665    -3.8333    -1.8868 H       
@<TRIPOS>BOND
   1    1    2 2
   2    1    5 1
   3    1   24 1
   4    2    3 1
   5    3    4 2
   6    3    6 1
   7    4    5 1
   8    4    9 1
   9    5   25 1
  10    6    7 2
  11    6    8 am
  12    8   17 1
  13    8   26 1
  14    9   10 2
  15    9   11 am
  16   11   12 1
  17   11   16 1
  18   12   13 1
  19   12   27 1
  20   12   28 1
  21   13   14 1
  22   13   29 1
  23   13   30 1
  24   14   15 1
  25   14   31 1
  26   15   16 1
  27   15   32 1
  28   15   33 1
  29   16   34 1
  30   16   35 1
  31   17   18 ar
  32   17   22 ar
  33   18   19 ar
  34   18   23 1
  35   19   20 ar
  36   19   36 1
  37   20   21 ar
  38   20   37 1
  39   21   22 ar
  40   21   38 1
  41   22   39 1
  42   23   40 1

#	End of record

