#	Name: ASD05720293
#	Creating user name:	WinNT
#	Creation time:	15. 06. 2019 21:02

#	Modifying user name:	WinNT
#	Modification time:	15. 06. 2019 21:02

#	Program:	/corina/corina34_cracker 3.40 0067  02.08.2006

@<TRIPOS>MOLECULE
ASD05720293
  66   69    0    0    0
SMALL
NO_CHARGES


@<TRIPOS>ATOM
   1 N1             1.1891     0.8123    -2.7659 N.am    
   2 C2             1.0242    -0.5758    -2.3136 C.3     
   3 C3             1.3874    -0.6566    -0.8276 C.3     
   4 C4             2.7938    -0.0904    -0.6188 C.3     
   5 C5             2.8220     1.3795    -1.0437 C.3     
   6 C6             2.4750     1.4834    -2.5322 C.3     
   7 C7             0.1818     1.4559    -3.3885 C.2     
   8 O8            -0.8752     0.8882    -3.5804 O.2     
   9 O9             0.3468     2.7280    -3.7977 O.3     
  10 C10            3.1737    -0.2012     0.8591 C.3     
  11 C11            4.9585     1.4823     1.3004 C.2     
  12 N12            6.2856     1.6177     1.4223 N.am    
  13 C13            6.9248     0.3079     1.2271 C.3     
  14 C14            5.7422    -0.6447     0.9648 C.3     
  15 N15            4.5622     0.2296     1.0401 N.am    
  16 O16            4.1836     2.4113     1.4202 O.2     
  17 C17            7.6838    -0.1125     2.4873 C.3     
  18 C18            8.8566     0.8424     2.7187 C.3     
  19 C19            6.7406    -0.0628     3.6910 C.3     
  20 C20            8.9282     3.9844     1.9098 C.2     
  21 N21            8.2692     2.8454     1.6540 N.2     
  22 C22            6.9520     2.8067     1.6905 C.2     
  23 C23            6.2182     3.9706     2.0011 C.2     
  24 C24            6.8779     5.1218     2.2599 C.2     
  25 N25            8.2444     5.1332     2.2149 N.pl3   
  26 N26            9.1881     6.1443     2.4302 N.2     
  27 C27           10.3916     5.6436     2.2661 C.2     
  28 C28           10.2807     4.2981     1.9452 C.2     
  29 Br29          11.7120     3.1077     1.6133 Br      
  30 C30           -0.7805     3.3585    -4.4610 C.3     
  31 C31           -1.9811     3.3840    -3.5129 C.3     
  32 C32           -0.4075     4.7903    -4.8503 C.3     
  33 C33           -1.1408     2.5654    -5.7189 C.3     
  34 H34           -0.0115    -0.8853    -2.4540 H       
  35 H35            1.6834    -1.2277    -2.8869 H       
  36 H36            0.6714    -0.0760    -0.2460 H       
  37 H37            1.3622    -1.6969    -0.5029 H       
  38 H38            3.5059    -0.6559    -1.2199 H       
  39 H39            2.0925     1.9410    -0.4600 H       
  40 H40            3.8178     1.7886    -0.8729 H       
  41 H41            3.2526     0.9995    -3.1233 H       
  42 H42            2.3967     2.5327    -2.8167 H       
  43 H43            2.5159     0.4344     1.4520 H       
  44 H44            3.0690    -1.2362     1.1846 H       
  45 H45            7.5939     0.3331     0.3669 H       
  46 H46            5.8241    -1.0925    -0.0256 H       
  47 H47            5.6957    -1.4172     1.7324 H       
  48 H48            8.0607    -1.1276     2.3628 H       
  49 H49            8.4784     1.8077     3.0552 H       
  50 H50            9.5190     0.4269     3.4781 H       
  51 H51            9.4081     0.9728     1.7875 H       
  52 H52            6.3636     0.9524     3.8155 H       
  53 H53            5.9050    -0.7430     3.5262 H       
  54 H54            7.2813    -0.3622     4.5888 H       
  55 H55            5.1390     3.9424     2.0316 H       
  56 H56            6.3317     6.0223     2.4990 H       
  57 H57           11.3176     6.1901     2.3676 H       
  58 H58           -1.7244     3.9490    -2.6168 H       
  59 H59           -2.8273     3.8574    -4.0109 H       
  60 H60           -2.2468     2.3640    -3.2356 H       
  61 H61            0.4478     4.7721    -5.5258 H       
  62 H62           -1.2537     5.2636    -5.3483 H       
  63 H63           -0.1508     5.3553    -3.9542 H       
  64 H64           -1.4066     1.5453    -5.4415 H       
  65 H65           -1.9870     3.0387    -6.2168 H       
  66 H66           -0.2855     2.5472    -6.3943 H       
@<TRIPOS>BOND
   1    1    2 1
   2    1    6 1
   3    1    7 am
   4    2    3 1
   5    2   34 1
   6    2   35 1
   7    3    4 1
   8    3   36 1
   9    3   37 1
  10    4    5 1
  11    4   10 1
  12    4   38 1
  13    5    6 1
  14    5   39 1
  15    5   40 1
  16    6   41 1
  17    6   42 1
  18    7    8 2
  19    7    9 1
  20    9   30 1
  21   10   15 1
  22   10   43 1
  23   10   44 1
  24   11   12 am
  25   11   15 am
  26   11   16 2
  27   12   13 1
  28   12   22 1
  29   13   14 1
  30   13   17 1
  31   13   45 1
  32   14   15 1
  33   14   46 1
  34   14   47 1
  35   17   18 1
  36   17   19 1
  37   17   48 1
  38   18   49 1
  39   18   50 1
  40   18   51 1
  41   19   52 1
  42   19   53 1
  43   19   54 1
  44   20   21 1
  45   20   25 1
  46   20   28 2
  47   21   22 2
  48   22   23 1
  49   23   24 2
  50   23   55 1
  51   24   25 1
  52   24   56 1
  53   25   26 1
  54   26   27 2
  55   27   28 1
  56   27   57 1
  57   28   29 1
  58   30   31 1
  59   30   33 1
  60   30   32 1
  61   31   58 1
  62   31   59 1
  63   31   60 1
  64   32   61 1
  65   32   62 1
  66   32   63 1
  67   33   64 1
  68   33   65 1
  69   33   66 1

#	End of record

