#	Name: ASD01530055
#	Creating user name:	WinNT
#	Creation time:	15. 06. 2019 19:22

#	Modifying user name:	WinNT
#	Modification time:	15. 06. 2019 19:22

#	Program:	/corina/corina34_cracker 3.40 0067  02.08.2006

@<TRIPOS>MOLECULE
ASD01530055
  44   46    0    0    0
SMALL
NO_CHARGES


@<TRIPOS>ATOM
   1 C1            -0.0167     1.3787     0.0096 C.ar    
   2 C2             0.0021    -0.0041     0.0020 C.ar    
   3 C3             1.2082    -0.6799    -0.0132 C.ar    
   4 C4             2.3973     0.0261    -0.0203 C.ar    
   5 C5             2.3787     1.4056    -0.0127 C.ar    
   6 C6             1.1697     2.0831     0.0021 C.ar    
   7 C7             3.4752     2.4449    -0.0163 C.3     
   8 O8             2.8592     3.6716     0.4169 O.3     
   9 C9             1.4836     3.5609     0.0071 C.3     
  10 C10            4.5702     2.0478     0.9398 C.ar    
  11 C11            4.0411     2.6092    -1.4283 C.3     
  12 C12            4.5087     2.4433     2.2631 C.ar    
  13 C13            5.5121     2.0793     3.1410 C.ar    
  14 C14            6.5792     1.3182     2.6947 C.ar    
  15 C15            6.6397     0.9227     1.3692 C.ar    
  16 C16            5.6325     1.2834     0.4944 C.ar    
  17 C17            5.2307     3.5708    -1.3923 C.3     
  18 C18            5.7966     3.7351    -2.8043 C.3     
  19 N19            6.9387     4.6583    -2.7697 N.3     
  20 C20            8.0570     4.0840    -2.0096 C.3     
  21 F21            7.5609     0.9621     3.5519 F       
  22 C22            7.3595     5.0263    -4.1282 C.3     
  23 H23           -0.9588     1.9066     0.0169 H       
  24 H24           -0.9260    -0.5564     0.0083 H       
  25 H25            1.2216    -1.7598    -0.0191 H       
  26 H26            3.3395    -0.5018    -0.0315 H       
  27 H27            1.3536     3.9759    -0.9925 H       
  28 H28            0.8385     4.0795     0.7164 H       
  29 H29            4.3688     1.6397    -1.8035 H       
  30 H30            3.2691     3.0108    -2.0847 H       
  31 H31            3.6765     3.0372     2.6108 H       
  32 H32            5.4640     2.3886     4.1746 H       
  33 H33            7.4716     0.3290     1.0201 H       
  34 H34            5.6774     0.9716    -0.5386 H       
  35 H35            4.9030     4.5403    -1.0171 H       
  36 H36            6.0027     3.1692    -0.7359 H       
  37 H37            6.1243     2.7656    -3.1794 H       
  38 H38            5.0246     4.1366    -3.4607 H       
  39 H39            8.3745     3.1526    -2.4784 H       
  40 H40            8.8891     4.7880    -1.9998 H       
  41 H41            7.7371     3.8854    -0.9868 H       
  42 H42            6.5325     5.5127    -4.6454 H       
  43 H43            8.2064     5.7103    -4.0735 H       
  44 H44            7.6518     4.1290    -4.6736 H       
@<TRIPOS>BOND
   1    1    2 ar
   2    1    6 ar
   3    1   23 1
   4    2    3 ar
   5    2   24 1
   6    3    4 ar
   7    3   25 1
   8    4    5 ar
   9    4   26 1
  10    5    7 1
  11    5    6 ar
  12    6    9 1
  13    7    8 1
  14    7   10 1
  15    7   11 1
  16    8    9 1
  17    9   27 1
  18    9   28 1
  19   10   12 ar
  20   10   16 ar
  21   11   17 1
  22   11   29 1
  23   11   30 1
  24   12   13 ar
  25   12   31 1
  26   13   14 ar
  27   13   32 1
  28   14   15 ar
  29   14   21 1
  30   15   16 ar
  31   15   33 1
  32   16   34 1
  33   17   18 1
  34   17   35 1
  35   17   36 1
  36   18   19 1
  37   18   37 1
  38   18   38 1
  39   19   20 1
  40   19   22 1
  41   20   39 1
  42   20   40 1
  43   20   41 1
  44   22   42 1
  45   22   43 1
  46   22   44 1

#	End of record

