#	Name: ASD01913965
#	Creating user name:	WinNT
#	Creation time:	15. 06. 2019 20:02

#	Modifying user name:	WinNT
#	Modification time:	15. 06. 2019 20:02

#	Program:	/corina/corina34_cracker 3.40 0067  02.08.2006

@<TRIPOS>MOLECULE
ASD01913965
  41   44    0    0    0
SMALL
NO_CHARGES


@<TRIPOS>ATOM
   1 C1            -0.0976     1.4374    -0.1422 C.ar    
   2 N2            -0.0897     0.1184    -0.1405 N.ar    
   3 C3             1.0371    -0.5690    -0.1029 C.ar    
   4 C4             2.2539     0.0929    -0.0641 C.ar    
   5 C5             2.2867     1.4946    -0.0986 C.ar    
   6 C6             1.0785     2.1668    -0.1223 C.ar    
   7 C7             3.5470    -0.6091     0.0249 C.2     
   8 C8             4.6943     0.0833     0.3420 C.2     
   9 C9             4.6954     1.5547     0.6381 C.3     
  10 C10            3.5857     2.2435    -0.1564 C.3     
  11 N11            3.8999    -1.8971    -0.1534 N.pl3   
  12 N12            5.1732    -2.0268     0.0147 N.2     
  13 C13            5.7231    -0.8605     0.3175 C.2     
  14 C14            7.1543    -0.6060     0.5789 C.2     
  15 C15            2.9779    -2.9857    -0.4866 C.3     
  16 N16            8.0408    -1.6195     0.5197 N.am    
  17 C17            9.4028    -1.3629     0.6612 C.ar    
  18 N18            9.8284    -0.1130     0.7540 N.ar    
  19 C19           11.1091     0.1736     0.8894 C.ar    
  20 C20           12.0576    -0.8285     0.9391 C.ar    
  21 C21           11.6524    -2.1532     0.8452 C.ar    
  22 C22           10.3021    -2.4224     0.7096 C.ar    
  23 O23            7.5328     0.5176     0.8476 O.2     
  24 C24           11.5424     1.6135     0.9908 C.3     
  25 H25           -1.0426     1.9598    -0.1641 H       
  26 H26            1.0103    -1.6487    -0.1021 H       
  27 H27            1.0530     3.2465    -0.1255 H       
  28 H28            4.5279     1.7100     1.7039 H       
  29 H29            5.6592     1.9799     0.3581 H       
  30 H30            3.8979     2.3280    -1.1973 H       
  31 H31            3.4335     3.2449     0.2462 H       
  32 H32            2.8054    -2.9992    -1.5628 H       
  33 H33            3.4111    -3.9366    -0.1762 H       
  34 H34            2.0312    -2.8315     0.0312 H       
  35 H35            7.7305    -2.5276     0.3784 H       
  36 H36           13.1038    -0.5845     1.0494 H       
  37 H37           12.3745    -2.9555     0.8814 H       
  38 H38            9.9521    -3.4413     0.6342 H       
  39 H39           11.5482     1.9183     2.0372 H       
  40 H40           12.5443     1.7215     0.5753 H       
  41 H41           10.8480     2.2419     0.4331 H       
@<TRIPOS>BOND
   1    1    2 ar
   2    1    6 ar
   3    1   25 1
   4    2    3 ar
   5    3    4 ar
   6    3   26 1
   7    4    5 ar
   8    4    7 1
   9    5    6 ar
  10    5   10 1
  11    6   27 1
  12    7    8 2
  13    7   11 1
  14    8    9 1
  15    8   13 1
  16    9   10 1
  17    9   28 1
  18    9   29 1
  19   10   30 1
  20   10   31 1
  21   11   12 1
  22   11   15 1
  23   12   13 2
  24   13   14 1
  25   14   16 am
  26   14   23 2
  27   15   32 1
  28   15   33 1
  29   15   34 1
  30   16   17 1
  31   16   35 1
  32   17   18 ar
  33   17   22 ar
  34   18   19 ar
  35   19   20 ar
  36   19   24 1
  37   20   21 ar
  38   20   36 1
  39   21   22 ar
  40   21   37 1
  41   22   38 1
  42   24   39 1
  43   24   40 1
  44   24   41 1

#	End of record

