#	Name: ASD03331326
#	Creating user name:	WinNT
#	Creation time:	15. 06. 2019 20:39

#	Modifying user name:	WinNT
#	Modification time:	15. 06. 2019 20:39

#	Program:	/corina/corina34_cracker 3.40 0067  02.08.2006

@<TRIPOS>MOLECULE
ASD03331326
  49   52    0    0    0
SMALL
NO_CHARGES


@<TRIPOS>ATOM
   1 N1            -0.0170     1.3998     0.0097 N.2     
   2 N2             0.0021    -0.0041     0.0020 N.am    
   3 C3             1.2959    -0.4007    -0.0135 C.2     
   4 C4             2.0736     0.7099    -0.0136 C.2     
   5 C5             1.2290     1.8298     0.0002 C.2     
   6 C6             3.5809     0.6604    -0.0251 C.3     
   7 C7             1.8638    -1.7985    -0.0306 C.3     
   8 C8             3.3400    -1.6981    -0.4424 C.3     
   9 O9             3.9827    -0.6726     0.3195 O.3     
  10 C10           -1.0761    -0.8127     0.0092 C.2     
  11 O11           -0.9309    -2.0189     0.0017 O.2     
  12 N12           -2.3154    -0.2833     0.0249 N.am    
  13 C13            1.6620     3.2490     0.0034 C.ar    
  14 C14            0.9143     4.2091    -0.6759 C.ar    
  15 C15            1.3212     5.5293    -0.6697 C.ar    
  16 C16            2.4724     5.8985     0.0118 C.ar    
  17 C17            3.2169     4.9464     0.6873 C.ar    
  18 C18            2.8140     3.6262     0.6902 C.ar    
  19 F19            2.8680     7.1903     0.0157 F       
  20 F20            0.5981     6.4616    -1.3279 F       
  21 O21           -3.3970    -2.4566     0.0257 O.3     
  22 C22           -3.4243    -1.1149     0.0323 C.2     
  23 N23           -4.6737    -0.7227     0.0473 N.2     
  24 C24           -5.4661    -1.8111     0.0506 C.2     
  25 C25           -4.6744    -2.8943     0.0372 C.2     
  26 C26           -6.9730    -1.8127     0.0665 C.3     
  27 C27           -7.4679    -2.1924     1.4636 C.3     
  28 C28           -7.4883    -0.4183    -0.2955 C.3     
  29 C29           -7.4928    -2.8289    -0.9523 C.3     
  30 H30            3.9503     0.9112    -1.0195 H       
  31 H31            3.9784     1.3654     0.7050 H       
  32 H32            1.7866    -2.2409     0.9626 H       
  33 H33            1.3200    -2.4094    -0.7512 H       
  34 H34            3.8342    -2.6517    -0.2568 H       
  35 H35            3.4051    -1.4567    -1.5034 H       
  36 H36           -2.4314     0.6797     0.0309 H       
  37 H37            0.0187     3.9216    -1.2065 H       
  38 H38            4.1121     5.2379     1.2164 H       
  39 H39            3.3934     2.8855     1.2214 H       
  40 H40           -4.9985    -3.9245     0.0355 H       
  41 H41           -7.0976    -1.4685     2.1895 H       
  42 H42           -8.5578    -2.1935     1.4751 H       
  43 H43           -7.1008    -3.1858     1.7215 H       
  44 H44           -7.1357    -0.1477    -1.2908 H       
  45 H45           -8.5782    -0.4194    -0.2840 H       
  46 H46           -7.1180     0.3057     0.4304 H       
  47 H47           -7.1257    -3.8223    -0.6944 H       
  48 H48           -8.5827    -2.8300    -0.9408 H       
  49 H49           -7.1402    -2.5583    -1.9476 H       
@<TRIPOS>BOND
   1    1    2 1
   2    1    5 2
   3    2    3 1
   4    2   10 am
   5    3    4 2
   6    3    7 1
   7    4    5 1
   8    4    6 1
   9    5   13 1
  10    6    9 1
  11    6   30 1
  12    6   31 1
  13    7    8 1
  14    7   32 1
  15    7   33 1
  16    8    9 1
  17    8   34 1
  18    8   35 1
  19   10   11 2
  20   10   12 am
  21   12   22 1
  22   12   36 1
  23   13   14 ar
  24   13   18 ar
  25   14   15 ar
  26   14   37 1
  27   15   16 ar
  28   15   20 1
  29   16   17 ar
  30   16   19 1
  31   17   18 ar
  32   17   38 1
  33   18   39 1
  34   21   22 1
  35   21   25 1
  36   22   23 2
  37   23   24 1
  38   24   25 2
  39   24   26 1
  40   25   40 1
  41   26   27 1
  42   26   29 1
  43   26   28 1
  44   27   41 1
  45   27   42 1
  46   27   43 1
  47   28   44 1
  48   28   45 1
  49   28   46 1
  50   29   47 1
  51   29   48 1
  52   29   49 1

#	End of record

