#	Name: ASD03092982
#	Creating user name:	WinNT
#	Creation time:	15. 06. 2019 20:33

#	Modifying user name:	WinNT
#	Modification time:	15. 06. 2019 20:33

#	Program:	/corina/corina34_cracker 3.40 0067  02.08.2006

@<TRIPOS>MOLECULE
ASD03092982
  49   51    0    0    0
SMALL
NO_CHARGES


@<TRIPOS>ATOM
   1 I1             0.0000     0.0000     0.0000 I       
   2 H2            11.6034    13.0418     7.1358 H       
   3 C3            11.5886    14.1317     7.1418 C.3     
   4 C4            10.8631    14.6705     5.8991 C.3     
   5 C5            10.8659    16.1996     5.9516 C.3     
   6 N6            11.5528    16.6665     7.1581 N.4     
   7 C7            11.5469    18.1355     7.1647 C.3     
   8 C8            12.9423    16.2025     7.1720 C.3     
   9 C9            13.0191    14.6930     7.1312 C.3     
  10 C10           10.8605    16.1876     8.3610 C.3     
  11 C11           10.8797    14.6533     8.3892 C.3     
  12 C12            9.4547    14.0793     8.4823 C.3     
  13 C13            9.6479    12.8825     9.3972 C.2     
  14 O14            8.7629    11.8767     9.5808 O.3     
  15 C15            9.1384    10.8400    10.4898 C.3     
  16 C16            8.0365     9.8147    10.5653 C.ar    
  17 C17            7.0250     9.9553    11.4971 C.ar    
  18 C18            6.0124     9.0162    11.5690 C.ar    
  19 C19            6.0095     7.9350    10.7095 C.ar    
  20 C20            7.0236     7.7915     9.7734 C.ar    
  21 O21            7.0227     6.7288     8.9263 O.3     
  22 C22            5.9466     5.7974     9.0552 C.3     
  23 C23            8.0350     8.7379     9.6996 C.ar    
  24 N24           10.7893    12.9866     9.9639 N.2     
  25 O25           11.4968    14.1519     9.5808 O.3     
  26 H26           11.3798    14.3348     5.0000 H       
  27 H27            9.8355    14.3071     5.8897 H       
  28 H28           11.3772    16.5898     5.0716 H       
  29 H29            9.8380    16.5622     5.9587 H       
  30 H30           10.5177    18.4946     7.1622 H       
  31 H31           12.0556    18.4968     8.0584 H       
  32 H32           12.0628    18.5049     6.2785 H       
  33 H33           13.4611    16.5908     6.2956 H       
  34 H34           13.4360    16.5690     8.0720 H       
  35 H35           13.5588    14.3348     8.0078 H       
  36 H36           13.5322    14.3686     6.2258 H       
  37 H37           11.3677    16.5675     9.2478 H       
  38 H38            9.8295    16.5414     8.3521 H       
  39 H39            8.7734    14.8032     8.9292 H       
  40 H40            9.0987    13.7641     7.5014 H       
  41 H41           10.0543    10.3639    10.1396 H       
  42 H42            9.3059    11.2668    11.4786 H       
  43 H43            7.0257    10.7998    12.1703 H       
  44 H44            5.2235     9.1281    12.2980 H       
  45 H45            5.2187     7.2016    10.7662 H       
  46 H46            5.9524     5.3721    10.0587 H       
  47 H47            5.0000     6.3098     8.8832 H       
  48 H48            6.0665     5.0000     8.3218 H       
  49 H49            8.8231     8.6309     8.9689 H       
@<TRIPOS>BOND
   1    2    3 1
   2    3    9 1
   3    3   11 1
   4    3    4 1
   5    4    5 1
   6    4   26 1
   7    4   27 1
   8    5    6 1
   9    5   28 1
  10    5   29 1
  11    6    7 1
  12    6    8 1
  13    6   10 1
  14    7   30 1
  15    7   31 1
  16    7   32 1
  17    8    9 1
  18    8   33 1
  19    8   34 1
  20    9   35 1
  21    9   36 1
  22   10   11 1
  23   10   37 1
  24   10   38 1
  25   11   25 1
  26   11   12 1
  27   12   13 1
  28   12   39 1
  29   12   40 1
  30   13   14 1
  31   13   24 2
  32   14   15 1
  33   15   16 1
  34   15   41 1
  35   15   42 1
  36   16   23 ar
  37   16   17 ar
  38   17   18 ar
  39   17   43 1
  40   18   19 ar
  41   18   44 1
  42   19   20 ar
  43   19   45 1
  44   20   21 1
  45   20   23 ar
  46   21   22 1
  47   22   46 1
  48   22   47 1
  49   22   48 1
  50   23   49 1
  51   24   25 1

#	End of record

