#	Name: ASD05313013
#	Creating user name:	WinNT
#	Creation time:	15. 06. 2019 20:58

#	Modifying user name:	WinNT
#	Modification time:	15. 06. 2019 20:58

#	Program:	/corina/corina34_cracker 3.40 0067  02.08.2006

@<TRIPOS>MOLECULE
ASD05313013
  32   34    0    0    0
SMALL
NO_CHARGES


@<TRIPOS>ATOM
   1 C1            -0.0651     0.7529     1.0917 C.2     
   2 C2             0.1303    -0.6719     0.6326 C.3     
   3 N3             0.9336     1.6811     1.1229 N.pl3   
   4 N4             1.4663    -0.7431     0.0107 N.am    
   5 C5             2.5829    -0.0647     0.6858 C.3     
   6 C6             2.3166     1.4452     0.7124 C.3     
   7 N7            -0.8913     2.5555     1.8211 N.2     
   8 N8            -1.1450     1.3279     1.5210 N.2     
   9 C9             0.3714     2.8179     1.5955 C.2     
  10 C10            1.6582    -1.4118    -1.1436 C.2     
  11 O11            2.7421    -1.3772    -1.6932 O.2     
  12 C12            0.5517    -2.1865    -1.7410 C.ar    
  13 C13            0.3200    -2.1326    -3.1192 C.ar    
  14 C14           -0.7179    -2.8616    -3.6702 C.ar    
  15 C15           -1.5241    -3.6408    -2.8614 C.ar    
  16 C16           -1.2995    -3.6973    -1.4968 C.ar    
  17 C17           -0.2645    -2.9809    -0.9336 C.ar    
  18 C18           -0.9709    -2.8062    -5.1548 C.3     
  19 F19           -2.0641    -3.6194    -5.4722 F       
  20 F20           -1.2456    -1.4873    -5.5321 F       
  21 F21            0.1622    -3.2603    -5.8382 F       
  22 F22            1.1072    -1.3705    -3.9096 F       
  23 Br23           1.2452     4.4705     1.8806 Br      
  24 H24            0.0805    -1.3480     1.4861 H       
  25 H25           -0.6347    -0.9358    -0.0977 H       
  26 H26            2.6710    -0.4366     1.7066 H       
  27 H27            3.5086    -0.2615     0.1451 H       
  28 H28            2.4772     1.8609    -0.2824 H       
  29 H29            2.9934     1.9222     1.4212 H       
  30 H30           -2.3337    -4.2080    -3.2966 H       
  31 H31           -1.9340    -4.3081    -0.8718 H       
  32 H32           -0.0887    -3.0304     0.1309 H       
@<TRIPOS>BOND
   1    1    2 1
   2    1    3 1
   3    1    8 2
   4    2    4 1
   5    2   24 1
   6    2   25 1
   7    3    6 1
   8    3    9 1
   9    4    5 1
  10    4   10 am
  11    5    6 1
  12    5   26 1
  13    5   27 1
  14    6   28 1
  15    6   29 1
  16    7    8 1
  17    7    9 2
  18    9   23 1
  19   10   11 2
  20   10   12 1
  21   12   13 ar
  22   12   17 ar
  23   13   14 ar
  24   13   22 1
  25   14   15 ar
  26   14   18 1
  27   15   16 ar
  28   15   30 1
  29   16   17 ar
  30   16   31 1
  31   17   32 1
  32   18   19 1
  33   18   20 1
  34   18   21 1

#	End of record

