#	Name: ASD01200468
#	Creating user name:	WinNT
#	Creation time:	15. 06. 2019 19:09

#	Modifying user name:	WinNT
#	Modification time:	15. 06. 2019 19:09

#	Program:	/corina/corina34_cracker 3.40 0067  02.08.2006

@<TRIPOS>MOLECULE
ASD01200468
  22   23    0    0    0
SMALL
NO_CHARGES


@<TRIPOS>ATOM
   1 N1             2.2306     1.3385     0.5650 N.ar    
   2 C2             2.2418     0.0207     0.5642 C.ar    
   3 C3             1.2057    -0.6961    -0.0211 C.ar    
   4 C4             0.1515    -0.0015    -0.6089 C.ar    
   5 C5             0.1812     1.3834    -0.5847 C.ar    
   6 C6             1.2472     2.0255     0.0169 C.ar    
   7 N7             1.2214    -2.0945    -0.0204 N.am    
   8 C8             0.0669    -2.7813     0.0891 C.2     
   9 O9            -0.9778    -2.1883     0.2855 O.2     
  10 O10            1.1520    -5.0182    -0.2443 O.3     
  11 C11            0.0693    -4.2418    -0.0282 C.2     
  12 C12           -1.0239    -5.0562     0.0623 C.2     
  13 C13           -0.5637    -6.3703    -0.1080 C.2     
  14 C14            0.7750    -6.3027    -0.2931 C.2     
  15 Br15           1.9240    -7.7780    -0.5744 Br      
  16 H16            3.0648    -0.5072     1.0228 H       
  17 H17           -0.6688    -0.5294    -1.0725 H       
  18 H18           -0.6192     1.9547    -1.0312 H       
  19 H19            1.2752     3.1050     0.0385 H       
  20 H20            2.0631    -2.5702    -0.0987 H       
  21 H21           -2.0449    -4.7478     0.2322 H       
  22 H22           -1.1648    -7.2674    -0.0934 H       
@<TRIPOS>BOND
   1    1    2 ar
   2    1    6 ar
   3    2    3 ar
   4    2   16 1
   5    3    4 ar
   6    3    7 1
   7    4    5 ar
   8    4   17 1
   9    5    6 ar
  10    5   18 1
  11    6   19 1
  12    7    8 am
  13    7   20 1
  14    8    9 2
  15    8   11 1
  16   10   11 1
  17   10   14 1
  18   11   12 2
  19   12   13 1
  20   12   21 1
  21   13   14 2
  22   13   22 1
  23   14   15 1

#	End of record

