#	Name: ASD01900420
#	Creating user name:	WinNT
#	Creation time:	15. 06. 2019 19:51

#	Modifying user name:	WinNT
#	Modification time:	15. 06. 2019 19:51

#	Program:	/corina/corina34_cracker 3.40 0067  02.08.2006

@<TRIPOS>MOLECULE
ASD01900420
  33   36    0    0    0
SMALL
NO_CHARGES


@<TRIPOS>ATOM
   1 C1             0.3995     3.9795     0.6178 C.ar    
   2 C2             0.8400     5.0091     1.4712 C.ar    
   3 C3             2.2069     5.2652     1.5735 C.ar    
   4 C4             3.0742     4.4918     0.8274 C.ar    
   5 C5             2.5696     3.4924     0.0057 C.ar    
   6 N6             1.2788     3.2638    -0.0793 N.ar    
   7 N7            -1.4107     4.8946     1.5691 N.2     
   8 N8            -0.2757     5.5589     2.0453 N.pl3   
   9 C9            -1.0614     3.9623     0.7229 C.2     
  10 N10           -1.9266     3.0974     0.0457 N.pl3   
  11 N11           -6.0174     5.7895     0.6921 N.pl3   
  12 C12           -7.3310     5.4015     0.7158 C.2     
  13 C13           -7.4197     4.0759     0.5274 C.2     
  14 C14           -6.0521     3.5727     0.3700 C.ar    
  15 C15           -5.5052     2.3061     0.1513 C.ar    
  16 C16           -4.1522     2.1588     0.0459 C.ar    
  17 C17           -3.3099     3.2651     0.1557 C.ar    
  18 C18           -3.8337     4.5278     0.3731 C.ar    
  19 C19           -5.2099     4.6939     0.4824 C.ar    
  20 C20           -5.5429     7.1654     0.8587 C.3     
  21 H21            2.5774     6.0480     2.2188 H       
  22 H22            4.1390     4.6634     0.8824 H       
  23 H23            3.2525     2.8908    -0.5758 H       
  24 H24           -0.2781     6.2917     2.6808 H       
  25 H25           -1.5668     2.3810    -0.5004 H       
  26 H26           -8.1708     6.0641     0.8647 H       
  27 H27           -8.3268     3.4906     0.4973 H       
  28 H28           -6.1515     1.4452     0.0653 H       
  29 H29           -3.7310     1.1788    -0.1229 H       
  30 H30           -3.1761     5.3804     0.4579 H       
  31 H31           -5.3639     7.3626     1.9157 H       
  32 H32           -4.6155     7.2999     0.3020 H       
  33 H33           -6.2962     7.8576     0.4825 H       
@<TRIPOS>BOND
   1    1    2 ar
   2    1    6 ar
   3    1    9 1
   4    2    3 ar
   5    2    8 1
   6    3    4 ar
   7    3   21 1
   8    4    5 ar
   9    4   22 1
  10    5    6 ar
  11    5   23 1
  12    7    8 1
  13    7    9 2
  14    8   24 1
  15    9   10 1
  16   10   17 1
  17   10   25 1
  18   11   12 1
  19   11   19 1
  20   11   20 1
  21   12   13 2
  22   12   26 1
  23   13   14 1
  24   13   27 1
  25   14   15 ar
  26   14   19 ar
  27   15   16 ar
  28   15   28 1
  29   16   17 ar
  30   16   29 1
  31   17   18 ar
  32   18   19 ar
  33   18   30 1
  34   20   31 1
  35   20   32 1
  36   20   33 1

#	End of record

