#	Name: ASD09116210
#	Creating user name:	WinNT
#	Creation time:	15. 06. 2019 21:21

#	Modifying user name:	WinNT
#	Modification time:	15. 06. 2019 21:21

#	Program:	/corina/corina34_cracker 3.40 0067  02.08.2006

@<TRIPOS>MOLECULE
ASD09116210
  67   72    0    0    0
SMALL
NO_CHARGES


@<TRIPOS>ATOM
   1 N1            -0.0296     1.4182     0.1448 N.2     
   2 N2            -0.0208     0.0192     0.2655 N.pl3   
   3 C3             1.2224     1.8077     0.1155 C.2     
   4 N4             2.0155     0.7341     0.2109 N.2     
   5 C5             1.2802    -0.3533     0.3022 C.2     
   6 N6             1.6572     3.1282     0.0030 N.pl3   
   7 C7             3.0222     3.4264     0.0973 C.ar    
   8 C8             3.5420     4.5220    -0.5796 C.ar    
   9 C9             5.7218     4.0160     0.2837 C.ar    
  10 C10            5.2010     2.9238     0.9651 C.ar    
  11 C11            3.8551     2.6298     0.8722 C.ar    
  12 C12           -1.1335    -0.8212     0.3346 C.ar    
  13 N13           -1.0318    -2.0871    -0.0420 N.ar    
  14 N14           -2.0275    -2.8994    -0.0076 N.ar    
  15 C15           -3.2231    -2.5141     0.4088 C.ar    
  16 C16           -3.4198    -1.2011     0.8461 C.ar    
  17 C17           -2.3529    -0.3285     0.8063 C.ar    
  18 C18           -4.3850    -3.4329     0.3985 C.ar    
  19 C19           -5.5815    -3.0010    -0.1759 C.ar    
  20 C20           -5.6439    -1.6415    -0.8164 C.3     
  21 C21           -5.7426    -0.5362     0.2316 C.3     
  22 C22           -4.7618    -0.7852     1.3743 C.3     
  23 C23           -4.2987    -4.7054     0.9524 C.ar    
  24 C24           -5.4072    -5.5298     0.9475 C.ar    
  25 C25           -6.5971    -5.0901     0.3964 C.ar    
  26 C26           -6.6846    -3.8275    -0.1641 C.ar    
  27 N27            1.7525    -1.6470     0.4151 N.pl3   
  28 C28            4.8879     4.8159    -0.4866 C.ar    
  29 N29            7.0862     4.3140     0.3779 N.3     
  30 C30            7.4216     5.5034    -0.4173 C.3     
  31 C31            8.9018     5.8417    -0.2249 C.3     
  32 N32            9.7213     4.6916    -0.6315 N.3     
  33 C33            9.3859     3.5022     0.1637 C.3     
  34 C34            7.9057     3.1639    -0.0287 C.3     
  35 C35            9.2638     7.0554    -1.0832 C.3     
  36 C36           10.2434     2.3218    -0.2969 C.3     
  37 H37            1.0141     3.8400    -0.1405 H       
  38 H38            2.8936     5.1439    -1.1789 H       
  39 H39            5.8487     2.3041     1.5674 H       
  40 H40            3.4500     1.7806     1.4025 H       
  41 H41           -2.4581     0.6996     1.1199 H       
  42 H42           -4.7453    -1.4872    -1.4138 H       
  43 H43           -6.5164    -1.5940    -1.4680 H       
  44 H44           -5.5142     0.4220    -0.2349 H       
  45 H45           -6.7571    -0.5083     0.6291 H       
  46 H46           -5.1536    -1.5731     2.0177 H       
  47 H47           -4.6501     0.1295     1.9565 H       
  48 H48           -3.3697    -5.0476     1.3839 H       
  49 H49           -5.3445    -6.5198     1.3746 H       
  50 H50           -7.4628    -5.7357     0.4031 H       
  51 H51           -7.6170    -3.4898    -0.5917 H       
  52 H52            2.7077    -1.8148     0.4322 H       
  53 H53            1.1288    -2.3873     0.4772 H       
  54 H54            5.2923     5.6677    -1.0133 H       
  55 H55            7.2285     5.3026    -1.4711 H       
  56 H56            6.8107     6.3444    -0.0892 H       
  57 H57            9.0894     6.0691     0.8245 H       
  58 H58            9.6209     4.5069    -1.6183 H       
  59 H59            9.5790     3.7030     1.2175 H       
  60 H60            7.6478     2.2993     0.5828 H       
  61 H61            7.7181     2.9366    -1.0781 H       
  62 H62            8.6544     7.9077    -0.7827 H       
  63 H63           10.3180     7.2961    -0.9460 H       
  64 H64            9.0769     6.8271    -2.1325 H       
  65 H65           11.2975     2.5637    -0.1616 H       
  66 H66            9.9944     1.4397     0.2931 H       
  67 H67           10.0491     2.1209    -1.3505 H       
@<TRIPOS>BOND
   1    1    2 1
   2    1    3 2
   3    2   12 1
   4    2    5 1
   5    3    4 1
   6    3    6 1
   7    4    5 2
   8    5   27 1
   9    6    7 1
  10    6   37 1
  11    7    8 ar
  12    7   11 ar
  13    8   28 ar
  14    8   38 1
  15    9   10 ar
  16    9   29 1
  17    9   28 ar
  18   10   11 ar
  19   10   39 1
  20   11   40 1
  21   12   13 ar
  22   12   17 ar
  23   13   14 ar
  24   14   15 ar
  25   15   16 ar
  26   15   18 1
  27   16   17 ar
  28   16   22 1
  29   17   41 1
  30   18   19 ar
  31   18   23 ar
  32   19   20 1
  33   19   26 ar
  34   20   21 1
  35   20   42 1
  36   20   43 1
  37   21   22 1
  38   21   44 1
  39   21   45 1
  40   22   46 1
  41   22   47 1
  42   23   24 ar
  43   23   48 1
  44   24   25 ar
  45   24   49 1
  46   25   26 ar
  47   25   50 1
  48   26   51 1
  49   27   52 1
  50   27   53 1
  51   28   54 1
  52   29   30 1
  53   29   34 1
  54   30   31 1
  55   30   55 1
  56   30   56 1
  57   31   32 1
  58   31   35 1
  59   31   57 1
  60   32   33 1
  61   32   58 1
  62   33   34 1
  63   33   36 1
  64   33   59 1
  65   34   60 1
  66   34   61 1
  67   35   62 1
  68   35   63 1
  69   35   64 1
  70   36   65 1
  71   36   66 1
  72   36   67 1

#	End of record

