#	Name: ASD01812555
#	Creating user name:	WinNT
#	Creation time:	15. 06. 2019 19:28

#	Modifying user name:	WinNT
#	Modification time:	15. 06. 2019 19:28

#	Program:	/corina/corina34_cracker 3.40 0067  02.08.2006

@<TRIPOS>MOLECULE
ASD01812555
  54   58    0    0    0
SMALL
NO_CHARGES


@<TRIPOS>ATOM
   1 C1            -0.0184     1.5028     0.0103 C.3     
   2 C2             0.0021    -0.0041     0.0020 C.2     
   3 C3            -1.0713    -0.8269     0.0024 C.2     
   4 C4            -0.5046    -2.1291    -0.0072 C.2     
   5 N5            -1.1935    -3.3422    -0.0111 N.am    
   6 C6            -2.5412    -3.3519    -0.0055 C.2     
   7 O7            -3.1551    -2.3060     0.0029 O.2     
   8 C8            -3.2854    -4.6623    -0.0097 C.3     
   9 S9            -5.0711    -4.3437    -0.0004 S.o2    
  10 O10           -5.4707    -3.7802     1.2414 O.2     
  11 O11           -5.4810    -3.7664    -1.2325 O.2     
  12 C12           -5.8037    -5.9461    -0.0063 C.2     
  13 C13           -6.5510    -6.4857     0.9689 C.2     
  14 N14           -6.9465    -7.7468     0.6098 N.pl3   
  15 C15           -7.7747    -8.6346     1.4297 C.3     
  16 C16           -6.8874    -9.5619     2.2195 C.ar    
  17 C17           -6.5102   -10.7794     1.6839 C.ar    
  18 C18           -5.6963   -11.6332     2.4060 C.ar    
  19 C19           -5.2577   -11.2714     3.6645 C.ar    
  20 C20           -5.6345   -10.0492     4.2048 C.ar    
  21 C21           -6.4471    -9.1921     3.4756 C.ar    
  22 N22           -5.1906    -9.6790     5.4826 N.pl3   
  23 C23           -4.3106   -10.3732     6.2549 C.2     
  24 C24           -4.1695    -9.6588     7.3960 C.2     
  25 N25           -4.9541    -8.5825     7.2709 N.2     
  26 N26           -5.5403    -8.6209     6.1269 N.2     
  27 C27           -6.4502    -8.0557    -0.6370 C.ar    
  28 C28           -6.5480    -9.1780    -1.4532 C.ar    
  29 C29           -5.9241    -9.1912    -2.6836 C.ar    
  30 F30           -6.0226   -10.2839    -3.4719 F       
  31 C31           -5.1957    -8.0910    -3.1201 C.ar    
  32 C32           -5.0860    -6.9693    -2.3265 C.ar    
  33 F33           -4.3771    -5.9016    -2.7539 F       
  34 C34           -5.7179    -6.9399    -1.0799 C.ar    
  35 N35            0.7919    -1.9629    -0.0122 N.2     
  36 O36            1.0879    -0.7906    -0.0130 O.3     
  37 H37            1.0042     1.8801     0.0026 H       
  38 H38           -0.5455     1.8639    -0.8728 H       
  39 H39           -0.5286     1.8543     0.9071 H       
  40 H40           -2.1169    -0.5564     0.0089 H       
  41 H41           -0.7025    -4.1788    -0.0178 H       
  42 H42           -3.0217    -5.2270    -0.9040 H       
  43 H43           -3.0142    -5.2370     0.8760 H       
  44 H44           -6.8027    -5.9981     1.8991 H       
  45 H45           -8.3785    -8.0388     2.1142 H       
  46 H46           -8.4290    -9.2202     0.7839 H       
  47 H47           -6.8520   -11.0644     0.6999 H       
  48 H48           -5.4038   -12.5839     1.9854 H       
  49 H49           -4.6224   -11.9387     4.2281 H       
  50 H50           -6.7385    -8.2390     3.8917 H       
  51 H51           -3.8241   -11.3052     6.0077 H       
  52 H52           -3.5458    -9.9086     8.2416 H       
  53 H53           -7.1116   -10.0384    -1.1238 H       
  54 H54           -4.7128    -8.1152    -4.0859 H       
@<TRIPOS>BOND
   1    1    2 1
   2    1   37 1
   3    1   38 1
   4    1   39 1
   5    2   36 1
   6    2    3 2
   7    3    4 1
   8    3   40 1
   9    4    5 1
  10    4   35 2
  11    5    6 am
  12    5   41 1
  13    6    7 2
  14    6    8 1
  15    8    9 1
  16    8   42 1
  17    8   43 1
  18    9   10 2
  19    9   11 2
  20    9   12 1
  21   12   34 1
  22   12   13 2
  23   13   14 1
  24   13   44 1
  25   14   15 1
  26   14   27 1
  27   15   16 1
  28   15   45 1
  29   15   46 1
  30   16   21 ar
  31   16   17 ar
  32   17   18 ar
  33   17   47 1
  34   18   19 ar
  35   18   48 1
  36   19   20 ar
  37   19   49 1
  38   20   21 ar
  39   20   22 1
  40   21   50 1
  41   22   26 1
  42   22   23 1
  43   23   24 2
  44   23   51 1
  45   24   25 1
  46   24   52 1
  47   25   26 2
  48   27   34 ar
  49   27   28 ar
  50   28   29 ar
  51   28   53 1
  52   29   30 1
  53   29   31 ar
  54   31   32 ar
  55   31   54 1
  56   32   33 1
  57   32   34 ar
  58   35   36 1

#	End of record

