#	Name: ASD03930016
#	Creating user name:	WinNT
#	Creation time:	15. 06. 2019 20:47

#	Modifying user name:	WinNT
#	Modification time:	15. 06. 2019 20:47

#	Program:	/corina/corina34_cracker 3.40 0067  02.08.2006

@<TRIPOS>MOLECULE
ASD03930016
  28   30    0    0    0
SMALL
NO_CHARGES


@<TRIPOS>ATOM
   1 C1            -0.0164     1.3607     0.0095 C.ar    
   2 C2             0.0021    -0.0041     0.0020 C.ar    
   3 C3            -1.1829    -0.7269    -0.0038 C.ar    
   4 C4            -2.4060    -0.1092    -0.0008 C.ar    
   5 C5            -2.4656     1.2915     0.0387 C.ar    
   6 C6            -1.2543     2.0360     0.0309 C.ar    
   7 C7            -3.6151    -1.0032    -0.0644 C.3     
   8 N8            -4.7561    -0.4113     0.6448 N.am    
   9 S9            -5.2017     1.1259     0.1714 S.o2    
  10 C10           -3.6726     2.0122     0.1119 C.ar    
  11 C11           -3.6780     3.3690     0.1336 C.ar    
  12 C12           -2.4863     4.0904     0.0900 C.ar    
  13 C13           -1.2931     3.4390     0.0406 C.ar    
  14 O14           -5.6739     1.0263    -1.1651 O.2     
  15 O15           -5.9608     1.6825     1.2359 O.2     
  16 C16           -5.4639    -1.1295     1.7076 C.3     
  17 O17            1.1466     2.0619     0.0022 O.3     
  18 H18            0.9474    -0.5263     0.0002 H       
  19 H19           -1.1396    -1.8060    -0.0113 H       
  20 H20           -3.8871    -1.1616    -1.1080 H       
  21 H21           -3.3726    -1.9640     0.3895 H       
  22 H22           -4.6187     3.8971     0.1849 H       
  23 H23           -2.5102     5.1701     0.0994 H       
  24 H24           -0.3729     4.0032     0.0043 H       
  25 H25           -4.9988    -0.9077     2.6681 H       
  26 H26           -6.5069    -0.8135     1.7274 H       
  27 H27           -5.4126    -2.2016     1.5181 H       
  28 H28            1.4750     2.2697    -0.8833 H       
@<TRIPOS>BOND
   1    1    2 ar
   2    1   17 1
   3    1    6 ar
   4    2    3 ar
   5    2   18 1
   6    3    4 ar
   7    3   19 1
   8    4    5 ar
   9    4    7 1
  10    5    6 ar
  11    5   10 ar
  12    6   13 ar
  13    7    8 1
  14    7   20 1
  15    7   21 1
  16    8    9 am
  17    8   16 1
  18    9   10 1
  19    9   14 2
  20    9   15 2
  21   10   11 ar
  22   11   12 ar
  23   11   22 1
  24   12   13 ar
  25   12   23 1
  26   13   24 1
  27   16   25 1
  28   16   26 1
  29   16   27 1
  30   17   28 1

#	End of record

