#	Name: ASD01880444
#	Creating user name:	WinNT
#	Creation time:	15. 06. 2019 19:40

#	Modifying user name:	WinNT
#	Modification time:	15. 06. 2019 19:40

#	Program:	/corina/corina34_cracker 3.40 0067  02.08.2006

@<TRIPOS>MOLECULE
ASD01880444
  23   23    0    0    0
SMALL
NO_CHARGES


@<TRIPOS>ATOM
   1 O1            -0.0161     1.3381     0.0094 O.3     
   2 C2             0.0021    -0.0041     0.0020 C.2     
   3 O3             1.0565    -0.5939    -0.0112 O.2     
   4 C4            -1.2926    -0.7753     0.0102 C.3     
   5 C5            -2.1010    -0.4638     1.2943 C.3     
   6 C6            -3.0085    -1.7107     1.4376 C.3     
   7 C7            -2.1088    -2.8857     1.0021 C.3     
   8 C8            -1.0177    -2.2909     0.0945 C.3     
   9 N9            -1.4960    -3.5138     2.1802 N.3     
  10 C10           -2.9191    -3.9008     0.2379 C.2     
  11 O11           -2.9732    -3.8467    -0.9679 O.2     
  12 O12           -3.5808    -4.8650     0.8969 O.3     
  13 H13            0.8394     1.7888     0.0037 H       
  14 H14           -1.8808    -0.5409    -0.8770 H       
  15 H15           -1.4381    -0.3676     2.1542 H       
  16 H16           -2.7003     0.4373     1.1644 H       
  17 H17           -3.3243    -1.8357     2.4734 H       
  18 H18           -3.8747    -1.6297     0.7809 H       
  19 H19           -1.0744    -2.7364    -0.8986 H       
  20 H20           -0.0336    -2.4683     0.5282 H       
  21 H21           -2.2005    -3.8894     2.7972 H       
  22 H22           -0.8365    -4.2272     1.9077 H       
  23 H23           -4.0870    -5.4931     0.3637 H       
@<TRIPOS>BOND
   1    1    2 1
   2    1   13 1
   3    2    3 2
   4    2    4 1
   5    4    5 1
   6    4    8 1
   7    4   14 1
   8    5    6 1
   9    5   15 1
  10    5   16 1
  11    6    7 1
  12    6   17 1
  13    6   18 1
  14    7    8 1
  15    7    9 1
  16    7   10 1
  17    8   19 1
  18    8   20 1
  19    9   21 1
  20    9   22 1
  21   10   11 2
  22   10   12 1
  23   12   23 1

#	End of record

