#	Name: ASD01814488
#	Creating user name:	WinNT
#	Creation time:	15. 06. 2019 19:32

#	Modifying user name:	WinNT
#	Modification time:	15. 06. 2019 19:32

#	Program:	/corina/corina34_cracker 3.40 0067  02.08.2006

@<TRIPOS>MOLECULE
ASD01814488
  59   64    0    0    0
SMALL
NO_CHARGES


@<TRIPOS>ATOM
   1 C1            -0.0167     1.3806     0.0096 C.ar    
   2 C2             0.0021    -0.0041     0.0020 C.ar    
   3 N3             1.1326    -0.6807    -0.0124 N.ar    
   4 C4             2.3086    -0.0708    -0.0203 C.ar    
   5 C5             2.3609     1.3371    -0.0133 C.ar    
   6 C6             1.1832     2.0749     0.0019 C.ar    
   7 N7             3.4842    -0.7901    -0.0350 N.pl3   
   8 N8             4.6484    -0.2530    -0.0423 N.2     
   9 C9             4.8548     1.0374    -0.0373 C.2     
  10 C10            3.6946     1.9629    -0.0222 C.2     
  11 C11            3.3986    -2.2526    -0.0420 C.3     
  12 C12            3.3563    -2.7465    -1.4651 C.ar    
  13 C13            4.5342    -3.0423    -2.1272 C.ar    
  14 C14            4.5013    -3.4950    -3.4306 C.ar    
  15 C15            3.2784    -3.6538    -4.0795 C.ar    
  16 C16            2.0949    -3.3543    -3.4077 C.ar    
  17 C17            2.1393    -2.9077    -2.1026 C.ar    
  18 C18            3.2367    -4.1396    -5.4809 C.ar    
  19 C19            6.0311     1.9109    -0.0426 C.2     
  20 N20            5.5598     3.1763    -0.0315 N.am    
  21 N21            4.1628     3.1748    -0.0195 N.2     
  22 O22            7.2005     1.5647    -0.0542 O.2     
  23 C23            6.3950     4.3800    -0.0312 C.3     
  24 C24            6.0837     5.2193    -1.2742 C.3     
  25 C25            6.9052     6.5111    -1.2234 C.3     
  26 C26            6.5888     7.2571     0.0755 C.3     
  27 O27            6.8715     6.4097     1.1909 O.3     
  28 C28            6.0983     5.2083     1.2216 C.3     
  29 C29            4.4144    -4.4405    -6.1589 C.ar    
  30 N30            4.3817    -4.8723    -7.4039 N.ar    
  31 C31            3.2417    -5.0363    -8.0547 C.ar    
  32 C32            2.0247    -4.7562    -7.4441 C.ar    
  33 C33            2.0127    -4.3073    -6.1376 C.ar    
  34 O34            3.2606    -5.4833    -9.3353 O.3     
  35 C35            4.5411    -5.7536    -9.9092 C.3     
  36 H36           -0.9559     1.9138     0.0170 H       
  37 H37           -0.9338    -0.5431     0.0084 H       
  38 H38            1.2022     3.1547     0.0079 H       
  39 H39            4.2706    -2.6700     0.4617 H       
  40 H40            2.4937    -2.5661     0.4785 H       
  41 H41            5.4814    -2.9185    -1.6233 H       
  42 H42            5.4216    -3.7253    -3.9467 H       
  43 H43            1.1444    -3.4756    -3.9060 H       
  44 H44            1.2226    -2.6756    -1.5808 H       
  45 H45            7.4467     4.0936    -0.0391 H       
  46 H46            6.3455     4.6556    -2.1697 H       
  47 H47            5.0215     5.4631    -1.2929 H       
  48 H48            7.9675     6.2687    -1.2547 H       
  49 H49            6.6488     7.1397    -2.0762 H       
  50 H50            7.2023     8.1559     0.1372 H       
  51 H51            5.5348     7.5346     0.0878 H       
  52 H52            5.0379     5.4590     1.2489 H       
  53 H53            6.3584     4.6311     2.1090 H       
  54 H54            5.3645    -4.3187    -5.6601 H       
  55 H55            1.0989    -4.8927    -7.9832 H       
  56 H56            1.0818    -4.0824    -5.6385 H       
  57 H57            4.4135    -6.1034   -10.9337 H       
  58 H58            5.1393    -4.8425    -9.9082 H       
  59 H59            5.0470    -6.5212    -9.3236 H       
@<TRIPOS>BOND
   1    1    2 ar
   2    1    6 ar
   3    1   36 1
   4    2    3 ar
   5    2   37 1
   6    3    4 ar
   7    4    5 ar
   8    4    7 1
   9    5    6 ar
  10    5   10 1
  11    6   38 1
  12    7    8 1
  13    7   11 1
  14    8    9 2
  15    9   10 1
  16    9   19 1
  17   10   21 2
  18   11   12 1
  19   11   39 1
  20   11   40 1
  21   12   13 ar
  22   12   17 ar
  23   13   14 ar
  24   13   41 1
  25   14   15 ar
  26   14   42 1
  27   15   16 ar
  28   15   18 1
  29   16   17 ar
  30   16   43 1
  31   17   44 1
  32   18   29 ar
  33   18   33 ar
  34   19   20 am
  35   19   22 2
  36   20   21 1
  37   20   23 1
  38   23   24 1
  39   23   28 1
  40   23   45 1
  41   24   25 1
  42   24   46 1
  43   24   47 1
  44   25   26 1
  45   25   48 1
  46   25   49 1
  47   26   27 1
  48   26   50 1
  49   26   51 1
  50   27   28 1
  51   28   52 1
  52   28   53 1
  53   29   30 ar
  54   29   54 1
  55   30   31 ar
  56   31   32 ar
  57   31   34 1
  58   32   33 ar
  59   32   55 1
  60   33   56 1
  61   34   35 1
  62   35   57 1
  63   35   58 1
  64   35   59 1

#	End of record

