#	Name: ASD03091560
#	Creating user name:	WinNT
#	Creation time:	15. 06. 2019 20:30

#	Modifying user name:	WinNT
#	Modification time:	15. 06. 2019 20:30

#	Program:	/corina/corina34_cracker 3.40 0067  02.08.2006

@<TRIPOS>MOLECULE
ASD03091560
  27   28    0    0    0
SMALL
NO_CHARGES


@<TRIPOS>ATOM
   1 C1            -0.0160     1.3297     0.0094 C.2     
   2 C2             0.0021    -0.0041     0.0020 C.2     
   3 S3            -1.6648    -0.5740     0.0155 S.3     
   4 C4            -2.2280     1.0401     0.0298 C.2     
   5 N5            -1.2251     1.8625     0.0294 N.2     
   6 N6            -3.5623     1.4153     0.0444 N.3     
   7 C7            -3.6979     2.8791     0.0538 C.3     
   8 C8            -4.2859     0.8324    -1.0949 C.3     
   9 C9            -5.7639     1.2220    -1.0071 C.3     
  10 O10           -5.8744     2.6473    -0.9675 O.3     
  11 C11           -5.1818     3.2482     0.1301 C.3     
  12 C12           -5.3342     4.7690     0.0594 C.3     
  13 C13           -6.5073     0.6858    -2.2321 C.3     
  14 Br14           1.5609     2.3734    -0.0001 Br      
  15 H15            0.8848    -0.6262    -0.0106 H       
  16 H16           -3.1763     3.2874     0.9194 H       
  17 H17           -3.2670     3.2904    -0.8590 H       
  18 H18           -3.8644     1.2110    -2.0260 H       
  19 H19           -4.1935    -0.2534    -1.0677 H       
  20 H20           -6.1990     0.7979    -0.1021 H       
  21 H21           -5.5999     2.8831     1.0681 H       
  22 H22           -6.3911     5.0309     0.1099 H       
  23 H23           -4.8062     5.2263     0.8961 H       
  24 H24           -4.9140     5.1331    -0.8781 H       
  25 H25           -6.4194    -0.4002    -2.2638 H       
  26 H26           -7.5594     0.9635    -2.1690 H       
  27 H27           -6.0726     1.1121    -3.1362 H       
@<TRIPOS>BOND
   1    1    2 2
   2    1   14 1
   3    1    5 1
   4    2    3 1
   5    2   15 1
   6    3    4 1
   7    4    5 2
   8    4    6 1
   9    6    7 1
  10    6    8 1
  11    7   11 1
  12    7   16 1
  13    7   17 1
  14    8    9 1
  15    8   18 1
  16    8   19 1
  17    9   10 1
  18    9   13 1
  19    9   20 1
  20   10   11 1
  21   11   12 1
  22   11   21 1
  23   12   22 1
  24   12   23 1
  25   12   24 1
  26   13   25 1
  27   13   26 1
  28   13   27 1

#	End of record

