#	Name: ASD01814887
#	Creating user name:	WinNT
#	Creation time:	15. 06. 2019 19:33

#	Modifying user name:	WinNT
#	Modification time:	15. 06. 2019 19:33

#	Program:	/corina/corina34_cracker 3.40 0067  02.08.2006

@<TRIPOS>MOLECULE
ASD01814887
  49   52    0    0    0
SMALL
NO_CHARGES


@<TRIPOS>ATOM
   1 C1             1.7083     2.4042     0.1941 C.2     
   2 C2             1.5068     1.0188     0.2582 C.2     
   3 C3             2.5773     0.1792     0.1567 C.2     
   4 C4             3.8639     0.7178    -0.0103 C.2     
   5 N5             4.0317     2.0747    -0.0692 N.am    
   6 C6             2.9544     2.9040     0.0330 C.2     
   7 C7             4.9657    -0.1429    -0.1148 C.2     
   8 C8             6.2199     0.3700    -0.2768 C.2     
   9 C9             6.3886     1.7658    -0.3374 C.2     
  10 C10            5.2610     2.6051    -0.2289 C.2     
  11 O11            5.3979     3.8157    -0.2808 O.2     
  12 C12            7.7241     2.3416    -0.5104 C.2     
  13 O13            7.8791     3.6804    -0.5677 O.3     
  14 O14            8.6935     1.6126    -0.6023 O.2     
  15 C15            4.7649    -1.6349    -0.0476 C.3     
  16 N16            4.6574    -2.1763    -1.4089 N.3     
  17 C17            4.6989    -3.6453    -1.3963 C.3     
  18 C18            4.5046    -4.1707    -2.8206 C.3     
  19 N19            5.5566    -3.6244    -3.6893 N.3     
  20 C20            5.5151    -2.1555    -3.7019 C.3     
  21 C21            5.7094    -1.6301    -2.2776 C.3     
  22 H22            5.6638    -3.9785    -1.0142 H       
  23 C23            5.4541    -4.1402    -4.9863 C.ar    
  24 C24            5.1276    -3.3040    -6.0434 C.ar    
  25 C25            5.6856    -5.4944    -5.2199 C.ar    
  26 C26            5.5833    -5.9992    -6.5052 C.ar    
  27 C27            5.2521    -5.1601    -7.5539 C.ar    
  28 C28            5.0275    -3.8159    -7.3239 C.ar    
  29 H29            4.5640    -5.2591    -2.8180 H       
  30 H30            3.5282    -3.8603    -3.1927 H       
  31 O31            6.0116    -6.3183    -4.1880 O.3     
  32 H32            0.8650     3.0747     0.2693 H       
  33 H33            0.5119     0.6190     0.3872 H       
  34 H34            2.4368    -0.8905     0.2047 H       
  35 H35            3.0980     3.9734    -0.0147 H       
  36 H36            7.0729    -0.2875    -0.3572 H       
  37 H37            8.7796     4.0136    -0.6827 H       
  38 H38            5.6138    -2.0933     0.4597 H       
  39 H39            3.8506    -1.8540     0.5038 H       
  40 H40            3.9029    -4.0261    -0.7565 H       
  41 H41            6.3111    -1.7747    -4.3417 H       
  42 H42            4.5502    -1.8222    -4.0840 H       
  43 H43            5.6500    -0.5417    -2.2802 H       
  44 H44            6.6858    -1.9404    -1.9055 H       
  45 H45            4.9513    -2.2533    -5.8664 H       
  46 H46            5.7625    -7.0482    -6.6891 H       
  47 H47            5.1731    -5.5556    -8.5558 H       
  48 H48            4.7692    -3.1645    -8.1457 H       
  49 H49            5.2583    -6.7924    -3.8101 H       
@<TRIPOS>BOND
   1    1    2 1
   2    1    6 2
   3    1   32 1
   4    2    3 2
   5    2   33 1
   6    3    4 1
   7    3   34 1
   8    4    5 1
   9    4    7 2
  10    5    6 1
  11    5   10 am
  12    6   35 1
  13    7   15 1
  14    7    8 1
  15    8    9 2
  16    8   36 1
  17    9   10 1
  18    9   12 1
  19   10   11 2
  20   12   13 1
  21   12   14 2
  22   13   37 1
  23   15   16 1
  24   15   38 1
  25   15   39 1
  26   16   17 1
  27   16   21 1
  28   17   18 1
  29   17   22 1
  30   17   40 1
  31   18   19 1
  32   18   29 1
  33   18   30 1
  34   19   20 1
  35   19   23 1
  36   20   21 1
  37   20   41 1
  38   20   42 1
  39   21   43 1
  40   21   44 1
  41   23   24 ar
  42   23   25 ar
  43   24   28 ar
  44   24   45 1
  45   25   26 ar
  46   25   31 1
  47   26   27 ar
  48   26   46 1
  49   27   28 ar
  50   27   47 1
  51   28   48 1
  52   31   49 1

#	End of record

