#	Name: ASD01148731
#	Creating user name:	WinNT
#	Creation time:	15. 06. 2019 19:03

#	Modifying user name:	WinNT
#	Modification time:	15. 06. 2019 19:03

#	Program:	/corina/corina34_cracker 3.40 0067  02.08.2006

@<TRIPOS>MOLECULE
ASD01148731
  47   50    0    0    0
SMALL
NO_CHARGES


@<TRIPOS>ATOM
   1 C1            -0.1323     1.1511     0.1619 C.ar    
   2 C2            -0.0338    -0.2177     0.3322 C.ar    
   3 C3             1.2007    -0.8347     0.2783 C.ar    
   4 C4             2.3436    -0.0791     0.0528 C.ar    
   5 C5             2.2415     1.2951    -0.1177 C.ar    
   6 C6             1.0041     1.9063    -0.0627 C.ar    
   7 S7            -1.7098     1.9336     0.2241 S.o2    
   8 O8            -1.5838     3.1488    -0.5015 O.2     
   9 O9            -2.6668     0.9331    -0.0956 O.2     
  10 N10           -1.9850     2.3570     1.8012 N.am    
  11 N11            3.5973    -0.7020    -0.0020 N.pl3   
  12 C12            3.9995    -1.5382    -0.9781 C.2     
  13 C13            5.2888    -1.9534    -0.6949 C.2     
  14 C14            5.6630    -1.2950     0.5604 C.2     
  15 C15            4.5952    -0.5426     0.9298 C.2     
  16 C16            3.1834    -1.9520    -2.1756 C.3     
  17 C17            6.1136    -2.8667    -1.4895 C.2     
  18 O18            5.6752    -3.3430    -2.5158 O.2     
  19 C19            7.5067    -3.2149    -1.0322 C.3     
  20 C20            8.0948    -4.5448    -1.5081 C.3     
  21 C21            8.6142    -3.2276    -2.0877 C.3     
  22 C22            4.5169     0.3061     2.1385 C.ar    
  23 C23            3.2745     0.6682     2.6608 C.ar    
  24 C24            3.2076     1.4596     3.7887 C.ar    
  25 C25            4.3701     1.8949     4.4022 C.ar    
  26 C26            5.6057     1.5392     3.8882 C.ar    
  27 C27            5.6850     0.7430     2.7644 C.ar    
  28 Cl28           4.2782     2.8910     5.8210 Cl      
  29 H29           -0.9231    -0.8048     0.5079 H       
  30 H30            1.2770    -1.9037     0.4117 H       
  31 H31            3.1287     1.8854    -0.2932 H       
  32 H32            0.9240     2.9751    -0.1956 H       
  33 H33           -1.3216     2.1571     2.4800 H       
  34 H34           -2.8098     2.8050     2.0462 H       
  35 H35            6.6026    -1.3871     1.0849 H       
  36 H36            3.3595    -1.2540    -2.9941 H       
  37 H37            3.4752    -2.9557    -2.4848 H       
  38 H38            2.1253    -1.9457    -1.9140 H       
  39 H39            7.7704    -2.8780    -0.0296 H       
  40 H40            8.7456    -5.0827    -0.8187 H       
  41 H41            7.4740    -5.1679    -2.1519 H       
  42 H42            8.3352    -2.9841    -3.1129 H       
  43 H43            9.6068    -2.8989    -1.7798 H       
  44 H44            2.3671     0.3298     2.1826 H       
  45 H45            2.2467     1.7405     4.1938 H       
  46 H46            6.5091     1.8819     4.3707 H       
  47 H47            6.6493     0.4625     2.3671 H       
@<TRIPOS>BOND
   1    1    2 ar
   2    1    6 ar
   3    1    7 1
   4    2    3 ar
   5    2   29 1
   6    3    4 ar
   7    3   30 1
   8    4    5 ar
   9    4   11 1
  10    5    6 ar
  11    5   31 1
  12    6   32 1
  13    7    8 2
  14    7    9 2
  15    7   10 am
  16   10   33 1
  17   10   34 1
  18   11   12 1
  19   11   15 1
  20   12   13 2
  21   12   16 1
  22   13   14 1
  23   13   17 1
  24   14   15 2
  25   14   35 1
  26   15   22 1
  27   16   36 1
  28   16   37 1
  29   16   38 1
  30   17   18 2
  31   17   19 1
  32   19   20 1
  33   19   21 1
  34   19   39 1
  35   20   21 1
  36   20   40 1
  37   20   41 1
  38   21   42 1
  39   21   43 1
  40   22   23 ar
  41   22   27 ar
  42   23   24 ar
  43   23   44 1
  44   24   25 ar
  45   24   45 1
  46   25   26 ar
  47   25   28 1
  48   26   27 ar
  49   26   46 1
  50   27   47 1

#	End of record

