#	Name: ASD01180147
#	Creating user name:	WinNT
#	Creation time:	15. 06. 2019 19:06

#	Modifying user name:	WinNT
#	Modification time:	15. 06. 2019 19:06

#	Program:	/corina/corina34_cracker 3.40 0067  02.08.2006

@<TRIPOS>MOLECULE
ASD01180147
  63   66    0    0    0
SMALL
NO_CHARGES


@<TRIPOS>ATOM
   1 C1             0.4619     1.2462     0.3018 C.2     
   2 C2             0.3838    -0.2256     0.2015 C.ar    
   3 C3             1.5487    -0.9813     0.0544 C.ar    
   4 C4             1.4686    -2.3553    -0.0382 C.ar    
   5 C5             0.2375    -2.9848     0.0139 C.ar    
   6 C6            -0.9208    -2.2420     0.1591 C.ar    
   7 C7            -0.8547    -0.8678     0.2591 C.ar    
   8 O8             1.5412     1.8016     0.2564 O.2     
   9 O9            -0.6643     1.9727     0.4381 O.3     
  10 C10            0.1579    -4.4862    -0.0884 C.3     
  11 N11           -0.8512    -4.9866     0.8484 N.pl3   
  12 N12            1.1212    -5.1200     3.8928 N.ar    
  13 C13            0.7678    -4.8980     2.6516 C.ar    
  14 C14           -0.5060    -5.2376     2.1785 C.ar    
  15 C15           -1.4192    -5.8217     3.0349 C.ar    
  16 C16           -1.0236    -6.0534     4.3650 C.ar    
  17 C17           -1.8971    -6.6435     5.2926 C.ar    
  18 C18           -1.4784    -6.8530     6.5733 C.ar    
  19 C19           -0.1923    -6.4881     6.9732 C.ar    
  20 C20            0.6782    -5.9143     6.0990 C.ar    
  21 C21            0.2831    -5.6821     4.7698 C.ar    
  22 F22           -2.3190    -7.4204     7.4659 F       
  23 C23           -0.2304    -4.8803    -1.5148 C.3     
  24 C24           -0.4447    -6.3918    -1.6996 C.3     
  25 C25           -1.6424    -6.0329    -2.5950 C.3     
  26 C26           -1.7293    -4.7108    -1.8143 C.3     
  27 C27           -1.2732    -5.8514    -4.0687 C.3     
  28 C28           -2.8540    -6.9450    -2.3926 C.3     
  29 C29           -0.5120     3.4137     0.5307 C.3     
  30 C30            0.1642     3.9376    -0.7378 C.3     
  31 C31           -1.8891     4.0635     0.6801 C.3     
  32 C32            0.3493     3.7584     1.7473 C.3     
  33 H33            2.5102    -0.4911     0.0129 H       
  34 H34            2.3688    -2.9410    -0.1520 H       
  35 H35           -1.8785    -2.7396     0.1984 H       
  36 H36           -1.7592    -0.2895     0.3773 H       
  37 H37            1.1278    -4.9190     0.1569 H       
  38 H38           -1.7590    -5.1438     0.5450 H       
  39 H39            1.4761    -4.4417     1.9759 H       
  40 H40           -2.4075    -6.0922     2.6936 H       
  41 H41           -2.8947    -6.9293     4.9935 H       
  42 H42            0.1169    -6.6636     7.9930 H       
  43 H43            1.6700    -5.6380     6.4252 H       
  44 H44            0.4197    -4.4361    -2.2685 H       
  45 H45            0.3670    -6.8859    -2.2335 H       
  46 H46           -0.7252    -6.9085    -0.7817 H       
  47 H47           -2.3608    -4.7679    -0.9278 H       
  48 H48           -1.9545    -3.8478    -2.4409 H       
  49 H49           -0.8458    -6.7775    -4.4529 H       
  50 H50           -2.1674    -5.5998    -4.6389 H       
  51 H51           -0.5433    -5.0474    -4.1640 H       
  52 H52           -3.1900    -6.8784    -1.3578 H       
  53 H53           -3.6594    -6.6319    -3.0570 H       
  54 H54           -2.5758    -7.9743    -2.6187 H       
  55 H55           -0.4494     3.6920    -1.6046 H       
  56 H56            0.2785     5.0194    -0.6684 H       
  57 H57            1.1452     3.4747    -0.8443 H       
  58 H58           -2.3709     3.6902     1.5838 H       
  59 H59           -1.7748     5.1453     0.7496 H       
  60 H60           -2.5027     3.8179    -0.1867 H       
  61 H61            1.3303     3.2954     1.6409 H       
  62 H62            0.4636     4.8401     1.8168 H       
  63 H63           -0.1325     3.3851     2.6510 H       
@<TRIPOS>BOND
   1    1    2 1
   2    1    8 2
   3    1    9 1
   4    2    3 ar
   5    2    7 ar
   6    3    4 ar
   7    3   33 1
   8    4    5 ar
   9    4   34 1
  10    5    6 ar
  11    5   10 1
  12    6    7 ar
  13    6   35 1
  14    7   36 1
  15    9   29 1
  16   10   11 1
  17   10   23 1
  18   10   37 1
  19   11   14 1
  20   11   38 1
  21   12   13 ar
  22   12   21 ar
  23   13   14 ar
  24   13   39 1
  25   14   15 ar
  26   15   16 ar
  27   15   40 1
  28   16   17 ar
  29   16   21 ar
  30   17   18 ar
  31   17   41 1
  32   18   19 ar
  33   18   22 1
  34   19   20 ar
  35   19   42 1
  36   20   21 ar
  37   20   43 1
  38   23   24 1
  39   23   26 1
  40   23   44 1
  41   24   25 1
  42   24   45 1
  43   24   46 1
  44   25   26 1
  45   25   27 1
  46   25   28 1
  47   26   47 1
  48   26   48 1
  49   27   49 1
  50   27   50 1
  51   27   51 1
  52   28   52 1
  53   28   53 1
  54   28   54 1
  55   29   30 1
  56   29   32 1
  57   29   31 1
  58   30   55 1
  59   30   56 1
  60   30   57 1
  61   31   58 1
  62   31   59 1
  63   31   60 1
  64   32   61 1
  65   32   62 1
  66   32   63 1

#	End of record

