#	Name: ASD09800060
#	Creating user name:	WinNT
#	Creation time:	15. 06. 2019 21:24

#	Modifying user name:	WinNT
#	Modification time:	15. 06. 2019 21:24

#	Program:	/corina/corina34_cracker 3.40 0067  02.08.2006

@<TRIPOS>MOLECULE
ASD09800060
  51   55    0    0    0
SMALL
NO_CHARGES


@<TRIPOS>ATOM
   1 C1            -0.0169     1.3944     0.0097 C.ar    
   2 C2             0.0021    -0.0041     0.0020 C.ar    
   3 C3             1.1954    -0.6686    -0.0129 C.ar    
   4 C4             2.3946     0.0298    -0.0206 C.ar    
   5 C5             2.4006     1.4088    -0.0133 C.ar    
   6 C6            -0.5026     3.5187     0.0227 C.2     
   7 N7            -1.0144     2.3122     0.0187 N.2     
   8 C8             1.1982     2.1019     0.0019 C.ar    
   9 N9             0.8640     3.4423     0.0118 N.pl3   
  10 C10           -1.2843     4.7742     0.0318 C.2     
  11 C11           -2.6901     4.8736     0.0381 C.2     
  12 C12           -3.0126     6.1928     0.0464 C.2     
  13 N13           -1.8538     6.9030     0.0454 N.pl3   
  14 N14           -0.7876     5.9949     0.0412 N.2     
  15 N15           -4.3028     6.7239     0.0545 N.am    
  16 C16           -5.3703     5.9012     0.0545 C.2     
  17 N17           -6.6166     6.4142     0.0623 N.am    
  18 O18           -5.2090     4.6960     0.0474 O.2     
  19 C19           -7.7769     5.5199     0.0623 C.3     
  20 C20           -9.0850     6.0598     0.6441 C.3     
  21 C21           -8.9400     5.8717    -0.8674 C.3     
  22 C22            3.6994    -0.7240    -0.0366 C.3     
  23 N23            4.1104    -0.9620    -1.4268 N.3     
  24 C24            4.4359     0.3018    -2.1036 C.3     
  25 C25            5.2461    -1.8935    -1.4882 C.3     
  26 C26            5.6025    -2.1592    -2.9533 C.3     
  27 O27            5.8853    -0.9169    -3.6028 O.3     
  28 C28            4.8004     0.0140    -3.5625 C.3     
  29 H29           -0.9252    -0.5576     0.0083 H       
  30 H30            1.2058    -1.7485    -0.0185 H       
  31 H31            3.3369     1.9471    -0.0190 H       
  32 H32            1.4823     4.1897     0.0117 H       
  33 H33           -3.3865     4.0481     0.0362 H       
  34 H34           -1.7784     7.8701     0.0498 H       
  35 H35           -4.4315     7.6853     0.0601 H       
  36 H36           -6.7452     7.3756     0.0679 H       
  37 H37           -7.5562     4.4635     0.2152 H       
  38 H38           -9.7250     5.3585     1.1794 H       
  39 H39           -9.0822     7.0804     1.0268 H       
  40 H40           -8.8419     6.7686    -1.4790 H       
  41 H41           -9.4847     5.0467    -1.3265 H       
  42 H42            4.4640    -0.1378     0.4730 H       
  43 H43            3.5735    -1.6790     0.4736 H       
  44 H44            3.5727     0.9664    -2.0684 H       
  45 H45            5.2811     0.7751    -1.6039 H       
  46 H46            6.1043    -1.4552    -0.9787 H       
  47 H47            4.9743    -2.8313    -1.0039 H       
  48 H48            6.4798    -2.8041    -3.0032 H       
  49 H49            4.7631    -2.6465    -3.4494 H       
  50 H50            3.9377    -0.4101    -4.0763 H       
  51 H51            5.0976     0.9409    -4.0530 H       
@<TRIPOS>BOND
   1    1    2 ar
   2    1    8 ar
   3    1    7 1
   4    2    3 ar
   5    2   29 1
   6    3    4 ar
   7    3   30 1
   8    4    5 ar
   9    4   22 1
  10    5    8 ar
  11    5   31 1
  12    6    7 2
  13    6    9 1
  14    6   10 1
  15    8    9 1
  16    9   32 1
  17   10   11 1
  18   10   14 2
  19   11   12 2
  20   11   33 1
  21   12   13 1
  22   12   15 1
  23   13   14 1
  24   13   34 1
  25   15   16 am
  26   15   35 1
  27   16   17 am
  28   16   18 2
  29   17   19 1
  30   17   36 1
  31   19   20 1
  32   19   21 1
  33   19   37 1
  34   20   21 1
  35   20   38 1
  36   20   39 1
  37   21   40 1
  38   21   41 1
  39   22   23 1
  40   22   42 1
  41   22   43 1
  42   23   25 1
  43   23   24 1
  44   24   28 1
  45   24   44 1
  46   24   45 1
  47   25   26 1
  48   25   46 1
  49   25   47 1
  50   26   27 1
  51   26   48 1
  52   26   49 1
  53   27   28 1
  54   28   50 1
  55   28   51 1

#	End of record

