#	Name: ASD00843524
#	Creating user name:	WinNT
#	Creation time:	15. 06. 2019 18:47

#	Modifying user name:	WinNT
#	Modification time:	15. 06. 2019 18:47

#	Program:	/corina/corina34_cracker 3.40 0067  02.08.2006

@<TRIPOS>MOLECULE
ASD00843524
  88   93    0    0    0
SMALL
NO_CHARGES


@<TRIPOS>ATOM
   1 N1             0.7545     1.0404    -0.2582 N.ar    
   2 C2             0.9542    -0.2382    -0.5308 C.ar    
   3 C3             0.8615    -1.1980     0.4691 C.ar    
   4 C4             0.5566    -0.7995     1.7587 C.ar    
   5 C5             0.3542     0.5520     2.0037 C.ar    
   6 C6             0.4623     1.4508     0.9615 C.ar    
   7 C7             1.0894    -2.6539     0.1536 C.3     
   8 C8             0.7949    -3.5115     1.3656 C.2     
   9 C9             0.2237    -3.0859    -1.0316 C.3     
  10 C10           -1.2199    -2.7636    -0.7431 C.2     
  11 N11           -2.1824    -3.1550    -1.6016 N.am    
  12 O12           -1.5156    -2.1521     0.2617 O.2     
  13 C13           -3.5800    -2.7523    -1.3935 C.3     
  14 C14           -4.4596    -4.0065    -1.3931 C.3     
  15 C15           -4.2179    -4.7946    -2.6824 C.3     
  16 C16           -2.7529    -5.2322    -2.7478 C.3     
  17 C17           -1.8530    -3.9873    -2.7667 C.3     
  18 N18           -5.0842    -5.9809    -2.7006 N.3     
  19 C19           -4.9666    -6.6994    -3.9771 C.3     
  20 C20           -5.8211    -7.9681    -3.9259 C.3     
  21 N21           -7.2191    -7.6034    -3.6571 N.3     
  22 C22           -7.3368    -6.8848    -2.3807 C.3     
  23 C23           -6.4822    -5.6162    -2.4318 C.3     
  24 C24           -8.0855    -8.7896    -3.6753 C.3     
  25 O25           -0.2709    -3.6096     1.9363 O.2     
  26 N26            1.9347    -4.1441     1.6905 N.am    
  27 C27            2.5515    -2.9110    -0.1334 C.ar    
  28 C28            2.9857    -3.8144     0.8312 C.ar    
  29 C29            3.4102    -2.4344    -1.0992 C.ar    
  30 C30            5.1841    -3.7591    -0.1595 C.ar    
  31 C31            4.3092    -4.2385     0.8150 C.ar    
  32 C32            1.7000    -6.8041     2.3566 C.ar    
  33 C33            2.7072    -7.6042     1.8497 C.ar    
  34 C34            0.3979    -7.2678     2.3934 C.ar    
  35 C35            0.1003    -8.5323     1.9234 C.ar    
  36 C36            1.1091    -9.3371     1.4143 C.ar    
  37 C37            2.4147    -8.8693     1.3782 C.ar    
  38 O38            0.8189   -10.5816     0.9518 O.3     
  39 H39            3.7235    -7.2398     1.8221 H       
  40 C40            1.9075   -11.3543     0.4419 C.3     
  41 C41            4.7292    -2.8529    -1.1228 C.ar    
  42 F42            5.5730    -2.3873    -2.0696 F       
  43 C43            6.5477    -4.1961    -0.1749 C.1     
  44 N44            7.6294    -4.5428    -0.1871 N.1     
  45 O45            1.2521    -0.6161    -1.7994 O.3     
  46 C46            1.2822     0.4113    -2.7922 C.3     
  47 C47            1.7339    -0.1832    -4.1277 C.3     
  48 F48            2.9747    -0.8084    -3.9639 F       
  49 F49            0.7924    -1.1221    -4.5625 F       
  50 S50            2.0775    -5.1935     2.9635 S.o2    
  51 O51            3.4537    -5.2104     3.3172 O.2     
  52 O52            1.0439    -4.8571     3.8788 O.2     
  53 H53            0.4775    -1.5233     2.5564 H       
  54 H54            0.1144     0.8964     2.9988 H       
  55 H55            0.3062     2.5033     1.1468 H       
  56 H56            0.5427    -2.5535    -1.9277 H       
  57 H57            0.3320    -4.1590    -1.1887 H       
  58 H58           -3.6739    -2.2397    -0.4361 H       
  59 H59           -3.8923    -2.0871    -2.1986 H       
  60 H60           -4.2068    -4.6279    -0.5340 H       
  61 H61           -5.5084    -3.7152    -1.3359 H       
  62 H62           -4.4473    -4.1645    -3.5417 H       
  63 H63           -2.5161    -5.8421    -1.8759 H       
  64 H64           -2.5869    -5.8134    -3.6548 H       
  65 H65           -2.0259    -3.4253    -3.6845 H       
  66 H66           -0.8076    -4.2912    -2.7133 H       
  67 H67           -5.3140    -6.0594    -4.7881 H       
  68 H68           -3.9244    -6.9696    -4.1476 H       
  69 H69           -5.7583    -8.4877    -4.8821 H       
  70 H70           -5.4565    -8.6205    -3.1325 H       
  71 H71           -8.3790    -6.6147    -2.2102 H       
  72 H72           -6.9894    -7.5249    -1.5697 H       
  73 H73           -6.5451    -5.0965    -1.4757 H       
  74 H74           -6.8469    -4.9638    -3.2253 H       
  75 H75           -7.7546    -9.4929    -2.9111 H       
  76 H76           -9.1143    -8.4913    -3.4736 H       
  77 H77           -8.0304    -9.2648    -4.6547 H       
  78 H78            3.0536    -1.7334    -1.8394 H       
  79 H79            4.6608    -4.9384     1.5586 H       
  80 H80           -0.3870    -6.6410     2.7901 H       
  81 H81           -0.9169    -8.8942     1.9526 H       
  82 H82            3.2019    -9.4941     0.9826 H       
  83 H83            2.3643   -10.8292    -0.3970 H       
  84 H84            2.6493   -11.4993     1.2272 H       
  85 H85            1.5391   -12.3238     0.1066 H       
  86 H86            0.2855     0.8385    -2.9033 H       
  87 H87            1.9799     1.1911    -2.4871 H       
  88 H88            1.8226     0.6120    -4.8679 H       
@<TRIPOS>BOND
   1    1    2 ar
   2    1    6 ar
   3    2    3 ar
   4    2   45 1
   5    3    4 ar
   6    3    7 1
   7    4    5 ar
   8    4   53 1
   9    5    6 ar
  10    5   54 1
  11    6   55 1
  12    7    8 1
  13    7    9 1
  14    7   27 1
  15    8   25 2
  16    8   26 am
  17    9   10 1
  18    9   56 1
  19    9   57 1
  20   10   11 am
  21   10   12 2
  22   11   13 1
  23   11   17 1
  24   13   14 1
  25   13   58 1
  26   13   59 1
  27   14   15 1
  28   14   60 1
  29   14   61 1
  30   15   16 1
  31   15   18 1
  32   15   62 1
  33   16   17 1
  34   16   63 1
  35   16   64 1
  36   17   65 1
  37   17   66 1
  38   18   19 1
  39   18   23 1
  40   19   20 1
  41   19   67 1
  42   19   68 1
  43   20   21 1
  44   20   69 1
  45   20   70 1
  46   21   22 1
  47   21   24 1
  48   22   23 1
  49   22   71 1
  50   22   72 1
  51   23   73 1
  52   23   74 1
  53   24   75 1
  54   24   76 1
  55   24   77 1
  56   26   50 am
  57   26   28 1
  58   27   28 ar
  59   27   29 ar
  60   28   31 ar
  61   29   41 ar
  62   29   78 1
  63   30   31 ar
  64   30   43 1
  65   30   41 ar
  66   31   79 1
  67   32   33 ar
  68   32   34 ar
  69   32   50 1
  70   33   39 1
  71   33   37 ar
  72   34   35 ar
  73   34   80 1
  74   35   36 ar
  75   35   81 1
  76   36   37 ar
  77   36   38 1
  78   37   82 1
  79   38   40 1
  80   40   83 1
  81   40   84 1
  82   40   85 1
  83   41   42 1
  84   43   44 3
  85   45   46 1
  86   46   47 1
  87   46   86 1
  88   46   87 1
  89   47   48 1
  90   47   49 1
  91   47   88 1
  92   50   51 2
  93   50   52 2

#	End of record

