#	Name: ASD03540286
#	Creating user name:	WinNT
#	Creation time:	15. 06. 2019 20:42

#	Modifying user name:	WinNT
#	Modification time:	15. 06. 2019 20:42

#	Program:	/corina/corina34_cracker 3.40 0067  02.08.2006

@<TRIPOS>MOLECULE
ASD03540286
  61   64    0    0    0
SMALL
NO_CHARGES


@<TRIPOS>ATOM
   1 C1            -0.0161     1.3365     0.0094 C.2     
   2 N2             0.0021    -0.0041     0.0020 N.am    
   3 C3             1.1934    -0.7075    -0.0132 C.2     
   4 C4             2.3927    -0.0052    -0.0209 C.2     
   5 C5             2.3194     1.4731    -0.0123 C.2     
   6 N6             1.1112     2.0659     0.0025 N.am    
   7 C7             3.5132    -0.8389    -0.0357 C.2     
   8 C8             3.2261    -2.1513    -0.0396 C.2     
   9 S9             1.4880    -2.3901    -0.0245 S.3     
  10 C10            4.2202    -3.2270    -0.0552 C.2     
  11 O11            5.4074    -2.9586    -0.0657 O.2     
  12 N12            3.8203    -4.5141    -0.0579 N.am    
  13 C13            4.8145    -5.5900    -0.0735 C.3     
  14 C14            4.1120    -6.9232    -0.0734 C.ar    
  15 C15            3.7782    -7.5277    -1.2701 C.ar    
  16 C16            3.1316    -8.7548    -1.2694 C.ar    
  17 C17            2.8215    -9.3723    -0.0661 C.ar    
  18 C18            3.1574    -8.7639     1.1276 C.ar    
  19 C19            3.8071    -7.5431     1.1241 C.ar    
  20 O20            2.8018    -9.3511    -2.4452 O.3     
  21 C21            2.1374   -10.6139    -2.3682 C.3     
  22 C22            1.0247     3.5284     0.0113 C.3     
  23 C23            1.0084     4.0297     1.4567 C.3     
  24 S24            0.9014     5.8405     1.4675 S.o2    
  25 O25            2.1020     6.4139     0.9687 O.2     
  26 O26           -0.3675     6.2678     0.9916 O.2     
  27 C27            0.8917     6.2701     3.1763 C.ar    
  28 C28            2.0831     6.5094     3.8357 C.ar    
  29 C29            2.0756     6.8464     5.1760 C.ar    
  30 C30            0.8766     6.9447     5.8574 C.ar    
  31 C31           -0.3145     6.7063     5.1981 C.ar    
  32 C32           -0.3072     6.3735     3.8562 C.ar    
  33 C33            3.3743     7.1063     5.8950 C.3     
  34 F34            3.6986     8.4636     5.7960 F       
  35 F35            3.2394     6.7562     7.2427 F       
  36 F36            4.3905     6.3404     5.3136 F       
  37 O37            3.3359     2.1421    -0.0183 O.2     
  38 O38           -1.0880     1.9102     0.0175 O.2     
  39 C39           -1.2652    -0.7390     0.0107 C.3     
  40 H40            4.5248    -0.4605    -0.0436 H       
  41 H41            2.8742    -4.7281    -0.0495 H       
  42 H42            5.4295    -5.5035    -0.9692 H       
  43 H43            5.4474    -5.5127     0.8106 H       
  44 H44            4.0202    -7.0449    -2.2054 H       
  45 H45            2.3178   -10.3276    -0.0628 H       
  46 H46            2.9160    -9.2439     2.0645 H       
  47 H47            4.0731    -7.0713     2.0584 H       
  48 H48            2.7739   -11.3282    -1.8460 H       
  49 H49            1.1993   -10.4985    -1.8252 H       
  50 H50            1.9320   -10.9784    -3.3747 H       
  51 H51            1.8867     3.9464    -0.5086 H       
  52 H52            0.1099     3.8413    -0.4921 H       
  53 H53            0.1464     3.6116     1.9766 H       
  54 H54            1.9232     3.7168     1.9601 H       
  55 H55            3.0197     6.4327     3.3034 H       
  56 H56            0.8707     7.2073     6.9050 H       
  57 H57           -1.2511     6.7828     5.7304 H       
  58 H58           -1.2381     6.1909     3.3400 H       
  59 H59           -2.0950    -0.0323     0.0228 H       
  60 H60           -1.3306    -1.3610    -0.8820 H       
  61 H61           -1.3129    -1.3705     0.8978 H       
@<TRIPOS>BOND
   1    1    2 am
   2    1    6 am
   3    1   38 2
   4    2    3 1
   5    2   39 1
   6    3    4 2
   7    3    9 1
   8    4    5 1
   9    4    7 1
  10    5    6 am
  11    5   37 2
  12    6   22 1
  13    7    8 2
  14    7   40 1
  15    8    9 1
  16    8   10 1
  17   10   11 2
  18   10   12 am
  19   12   13 1
  20   12   41 1
  21   13   14 1
  22   13   42 1
  23   13   43 1
  24   14   15 ar
  25   14   19 ar
  26   15   16 ar
  27   15   44 1
  28   16   17 ar
  29   16   20 1
  30   17   18 ar
  31   17   45 1
  32   18   19 ar
  33   18   46 1
  34   19   47 1
  35   20   21 1
  36   21   48 1
  37   21   49 1
  38   21   50 1
  39   22   23 1
  40   22   51 1
  41   22   52 1
  42   23   24 1
  43   23   53 1
  44   23   54 1
  45   24   25 2
  46   24   26 2
  47   24   27 1
  48   27   28 ar
  49   27   32 ar
  50   28   29 ar
  51   28   55 1
  52   29   30 ar
  53   29   33 1
  54   30   31 ar
  55   30   56 1
  56   31   32 ar
  57   31   57 1
  58   32   58 1
  59   33   34 1
  60   33   35 1
  61   33   36 1
  62   39   59 1
  63   39   60 1
  64   39   61 1

#	End of record

