#	Name: ASD03491008
#	Creating user name:	WinNT
#	Creation time:	15. 06. 2019 20:42

#	Modifying user name:	WinNT
#	Modification time:	15. 06. 2019 20:42

#	Program:	/corina/corina34_cracker 3.40 0067  02.08.2006

@<TRIPOS>MOLECULE
ASD03491008
  77   80    0    0    0
SMALL
NO_CHARGES


@<TRIPOS>ATOM
   1 C1            -0.0386     1.3013    -0.3595 C.ar    
   2 C2             0.0868     0.0084    -0.8754 C.ar    
   3 C3             1.3205    -0.6496    -0.8048 C.ar    
   4 C4             2.4111    -0.0082    -0.2207 C.ar    
   5 C5             2.2695     1.2750     0.2864 C.ar    
   6 C6             1.0486     1.9235     0.2155 C.ar    
   7 C7             0.9073     3.3174     0.7705 C.3     
   8 N8             3.6477    -0.6583    -0.1455 N.am    
   9 C9             4.7892     0.0502    -0.2535 C.2     
  10 O10            4.7459     1.2346    -0.5177 O.2     
  11 C11            7.3463     0.1207    -0.2758 C.ar    
  12 C12            8.6419    -0.5603    -0.2152 C.ar    
  13 C13            9.8205     0.1883    -0.4406 C.ar    
  14 C14            9.7230     1.5698    -0.7173 C.ar    
  15 C15            8.4880     2.1893    -0.7685 C.ar    
  16 C16            7.3168     1.4886    -0.5599 C.ar    
  17 C17            8.7338    -1.9279     0.0601 C.ar    
  18 C18            9.9599    -2.5258     0.1083 C.ar    
  19 C19           11.1209    -1.7920    -0.1131 C.ar    
  20 C20           11.0652    -0.4571    -0.3842 C.ar    
  21 O21           10.8471     2.2930    -0.9336 O.3     
  22 C22           10.6800     3.6854    -1.2084 C.3     
  23 C23           12.0504     4.3308    -1.4238 C.3     
  24 N24           12.6723     3.7686    -2.6300 N.3     
  25 C25           13.8759     4.5255    -3.0039 C.3     
  26 C26           14.5239     3.8716    -4.2271 C.3     
  27 O27           13.5699     3.8117    -5.2909 O.3     
  28 C28           12.3853     3.0813    -4.9614 C.3     
  29 C29           11.7156     3.7271    -3.7455 C.3     
  30 C30            2.2483     3.7748     1.3479 C.3     
  31 C31            0.4817     4.2709    -0.3478 C.3     
  32 C32           -0.1515     3.3217     1.8749 C.3     
  33 C33            6.1041    -0.6200    -0.0487 C.2     
  34 O34            6.1455    -1.7816     0.3068 O.2     
  35 O35            1.4535    -1.9052    -1.3022 O.3     
  36 C36            1.8394    -2.0226    -2.6730 C.3     
  37 C37           -1.0756    -0.6600    -1.4910 C.2     
  38 O38           -0.9633    -1.7848    -1.9388 O.2     
  39 N39           -2.2620    -0.0238    -1.5568 N.am    
  40 C40           -3.4161    -0.6875    -2.1680 C.3     
  41 H41           -0.9870     1.8149    -0.4155 H       
  42 H42            3.1158     1.7705     0.7387 H       
  43 H43            3.6836    -1.6189    -0.0155 H       
  44 H44            8.4378     3.2468    -0.9819 H       
  45 H45            6.3692     2.0045    -0.6077 H       
  46 H46            7.8396    -2.5080     0.2339 H       
  47 H47           10.0296    -3.5823     0.3213 H       
  48 H48           12.0799    -2.2868    -0.0695 H       
  49 H49           11.9742     0.1008    -0.5541 H       
  50 H50           10.0752     3.8084    -2.1068 H       
  51 H51           10.1810     4.1646    -0.3661 H       
  52 H52           11.9299     5.4073    -1.5451 H       
  53 H53           12.6856     4.1313    -0.5608 H       
  54 H54           13.6002     5.5525    -3.2434 H       
  55 H55           14.5810     4.5216    -2.1727 H       
  56 H56           15.3841     4.4620    -4.5426 H       
  57 H57           14.8480     2.8627    -3.9717 H       
  58 H58           11.6988     3.1001    -5.8078 H       
  59 H59           12.6472     2.0494    -4.7273 H       
  60 H60           10.8438     3.1405    -3.4558 H       
  61 H61           11.4054     4.7414    -3.9969 H       
  62 H62            3.0027     3.7718     0.5611 H       
  63 H63            2.1461     4.7831     1.7493 H       
  64 H64            2.5515     3.0956     2.1446 H       
  65 H65           -0.4736     3.9450    -0.7591 H       
  66 H66            0.3795     5.2791     0.0536 H       
  67 H67            1.2361     4.2678    -1.1346 H       
  68 H68            0.1517     2.6424     2.6716 H       
  69 H69           -0.2537     4.3299     2.2763 H       
  70 H70           -1.1069     2.9958     1.4636 H       
  71 H71            1.0952    -1.5353    -3.3030 H       
  72 H72            2.8083    -1.5453    -2.8199 H       
  73 H73            1.9092    -3.0766    -2.9419 H       
  74 H74           -2.3516     0.8735    -1.1995 H       
  75 H75           -3.1887    -0.9288    -3.2064 H       
  76 H76           -3.6390    -1.6044    -1.6224 H       
  77 H77           -4.2795    -0.0232    -2.1300 H       
@<TRIPOS>BOND
   1    1    2 ar
   2    1    6 ar
   3    1   41 1
   4    2    3 ar
   5    2   37 1
   6    3    4 ar
   7    3   35 1
   8    4    5 ar
   9    4    8 1
  10    5    6 ar
  11    5   42 1
  12    6    7 1
  13    7   30 1
  14    7   31 1
  15    7   32 1
  16    8    9 am
  17    8   43 1
  18    9   10 2
  19    9   33 1
  20   11   12 ar
  21   11   33 1
  22   11   16 ar
  23   12   13 ar
  24   12   17 ar
  25   13   14 ar
  26   13   20 ar
  27   14   15 ar
  28   14   21 1
  29   15   16 ar
  30   15   44 1
  31   16   45 1
  32   17   18 ar
  33   17   46 1
  34   18   19 ar
  35   18   47 1
  36   19   20 ar
  37   19   48 1
  38   20   49 1
  39   21   22 1
  40   22   23 1
  41   22   50 1
  42   22   51 1
  43   23   24 1
  44   23   52 1
  45   23   53 1
  46   24   25 1
  47   24   29 1
  48   25   26 1
  49   25   54 1
  50   25   55 1
  51   26   27 1
  52   26   56 1
  53   26   57 1
  54   27   28 1
  55   28   29 1
  56   28   58 1
  57   28   59 1
  58   29   60 1
  59   29   61 1
  60   30   62 1
  61   30   63 1
  62   30   64 1
  63   31   65 1
  64   31   66 1
  65   31   67 1
  66   32   68 1
  67   32   69 1
  68   32   70 1
  69   33   34 2
  70   35   36 1
  71   36   71 1
  72   36   72 1
  73   36   73 1
  74   37   38 2
  75   37   39 am
  76   39   40 1
  77   39   74 1
  78   40   75 1
  79   40   76 1
  80   40   77 1

#	End of record

