#	Name: ASD01180166
#	Creating user name:	WinNT
#	Creation time:	15. 06. 2019 19:06

#	Modifying user name:	WinNT
#	Modification time:	15. 06. 2019 19:06

#	Program:	/corina/corina34_cracker 3.40 0067  02.08.2006

@<TRIPOS>MOLECULE
ASD01180166
  44   46    0    0    0
SMALL
NO_CHARGES


@<TRIPOS>ATOM
   1 C1             0.3396     1.4530     0.3286 C.2     
   2 C2             0.2679    -0.0199     0.2392 C.ar    
   3 C3             1.4389    -0.7747     0.1466 C.ar    
   4 C4             1.3646    -2.1497     0.0640 C.ar    
   5 C5             0.1334    -2.7809     0.0721 C.ar    
   6 C6            -1.0310    -2.0390     0.1632 C.ar    
   7 C7            -0.9710    -0.6637     0.2527 C.ar    
   8 O8             1.4191     2.0100     0.3216 O.2     
   9 O9            -0.7923     2.1786     0.4121 O.3     
  10 C10            0.0602    -4.2834    -0.0190 C.3     
  11 C11           -0.1598    -4.8689     1.3773 C.3     
  12 C12           -0.1020    -6.3961     1.3048 C.3     
  13 C13           -0.1983    -6.9777     2.7167 C.3     
  14 N14           -1.0539    -4.6661    -0.8901 N.pl3   
  15 N15            0.5611    -4.4109    -4.1309 N.ar    
  16 C16            0.3719    -4.4130    -2.8350 C.ar    
  17 C17           -0.8862    -4.6714    -2.2768 C.ar    
  18 C18           -1.9605    -4.9322    -3.1055 C.ar    
  19 C19           -1.7401    -4.9266    -4.4948 C.ar    
  20 C20           -2.7832    -5.1829    -5.3996 C.ar    
  21 C21           -2.5321    -5.1689    -6.7378 C.ar    
  22 C22           -1.2529    -4.9035    -7.2218 C.ar    
  23 C23           -0.2190    -4.6509    -6.3735 C.ar    
  24 C24           -0.4378    -4.6563    -4.9848 C.ar    
  25 F25           -1.4066    -6.5840     3.3018 F       
  26 F26           -0.1455    -8.3741     2.6504 F       
  27 F27            0.8690    -6.5068     3.4888 F       
  28 H28            2.4005    -0.2832     0.1394 H       
  29 H29            2.2696    -2.7347    -0.0077 H       
  30 H30           -1.9888    -2.5379     0.1683 H       
  31 H31           -1.8804    -0.0861     0.3286 H       
  32 H32           -0.6948     3.1390     0.4687 H       
  33 H33            0.9928    -4.6682    -0.4316 H       
  34 H34            0.6183    -4.5074     2.0496 H       
  35 H35           -1.1357    -4.5596     1.7514 H       
  36 H36           -0.9336    -6.7630     0.7032 H       
  37 H37            0.8394    -6.7029     0.8489 H       
  38 H38           -1.9079    -4.9157    -0.5038 H       
  39 H39            1.2068    -4.2100    -2.1807 H       
  40 H40           -2.9403    -5.1347    -2.6987 H       
  41 H41           -3.7788    -5.3903    -5.0360 H       
  42 H42           -3.3347    -5.3665    -7.4329 H       
  43 H43           -1.0788    -4.8983    -8.2877 H       
  44 H44            0.7663    -4.4467    -6.7659 H       
@<TRIPOS>BOND
   1    1    2 1
   2    1    8 2
   3    1    9 1
   4    2    3 ar
   5    2    7 ar
   6    3    4 ar
   7    3   28 1
   8    4    5 ar
   9    4   29 1
  10    5    6 ar
  11    5   10 1
  12    6    7 ar
  13    6   30 1
  14    7   31 1
  15    9   32 1
  16   10   11 1
  17   10   14 1
  18   10   33 1
  19   11   12 1
  20   11   34 1
  21   11   35 1
  22   12   13 1
  23   12   36 1
  24   12   37 1
  25   13   25 1
  26   13   26 1
  27   13   27 1
  28   14   17 1
  29   14   38 1
  30   15   16 ar
  31   15   24 ar
  32   16   17 ar
  33   16   39 1
  34   17   18 ar
  35   18   19 ar
  36   18   40 1
  37   19   20 ar
  38   19   24 ar
  39   20   21 ar
  40   20   41 1
  41   21   22 ar
  42   21   42 1
  43   22   23 ar
  44   22   43 1
  45   23   24 ar
  46   23   44 1

#	End of record

