#	Name: ASD09116114
#	Creating user name:	WinNT
#	Creation time:	15. 06. 2019 21:20

#	Modifying user name:	WinNT
#	Modification time:	15. 06. 2019 21:20

#	Program:	/corina/corina34_cracker 3.40 0067  02.08.2006

@<TRIPOS>MOLECULE
ASD09116114
  54   57    0    0    0
SMALL
NO_CHARGES


@<TRIPOS>ATOM
   1 C1             1.6648    -0.9335     1.1995 C.2     
   2 N2             0.5940    -0.0944     1.0756 N.pl3   
   3 O3             2.8762    -0.5512     0.7492 O.3     
   4 N4             1.5142    -2.1155     1.7647 N.2     
   5 C5            -3.2101    -1.4085     2.1308 C.ar    
   6 C6            -2.3591    -2.2483     1.4588 C.ar    
   7 C7            -2.8022    -3.6516     1.0994 C.3     
   8 C8            -2.8808    -4.4792     2.3846 C.3     
   9 C9            -4.2256    -4.3024     3.0616 C.3     
  10 C10           -4.4623    -2.9186     3.6336 C.3     
  11 C11           -4.5969    -1.8805     2.5164 C.3     
  12 C12           -1.0930    -1.8229     1.1030 C.ar    
  13 C13           -0.6849    -0.5354     1.4307 C.ar    
  14 C14           -1.5486     0.3123     2.1117 C.ar    
  15 C15           -2.8137    -0.1232     2.4576 C.ar    
  16 N16           -4.3308    -5.2814     4.1517 N.3     
  17 C17           -5.6232    -5.1575     4.8504 C.3     
  18 C18           -6.3133    -6.5361     4.7833 C.3     
  19 C19           -5.1281    -7.5091     4.5478 C.3     
  20 C20           -4.2038    -6.6620     3.6381 C.3     
  21 C21            2.5251    -3.0171     1.7293 C.1     
  22 N22            3.3726    -3.7729     1.6996 N.1     
  23 C23            2.9147     0.0942    -0.4462 C.ar    
  24 C24            4.1184     0.5815    -0.9344 C.ar    
  25 C25            4.1548     1.2372    -2.1497 C.ar    
  26 C26            2.9929     1.4080    -2.8795 C.ar    
  27 C27            1.7919     0.9233    -2.3952 C.ar    
  28 C28            1.7512     0.2619    -1.1831 C.ar    
  29 H29            0.7207     0.8073     0.7412 H       
  30 H30           -3.7833    -3.6160     0.6260 H       
  31 H31           -2.0795    -4.1007     0.4181 H       
  32 H32           -2.7378    -5.5322     2.1418 H       
  33 H33           -2.0922    -4.1592     3.0655 H       
  34 H34           -5.0093    -4.5146     2.3344 H       
  35 H35           -5.3771    -2.9277     4.2262 H       
  36 H36           -3.6237    -2.6480     4.2751 H       
  37 H37           -5.1863    -1.0349     2.8709 H       
  38 H38           -5.0832    -2.3332     1.6523 H       
  39 H39           -0.4252    -2.4867     0.5741 H       
  40 H40           -1.2332     1.3131     2.3674 H       
  41 H41           -3.4875     0.5340     2.9872 H       
  42 H42           -5.4571    -4.8762     5.8903 H       
  43 H43           -6.2418    -4.4087     4.3557 H       
  44 H44           -6.8160    -6.7616     5.7238 H       
  45 H45           -7.0155    -6.5755     3.9506 H       
  46 H46           -4.6325    -7.7553     5.4869 H       
  47 H47           -5.4600    -8.4118     4.0349 H       
  48 H48           -4.5396    -6.7139     2.6024 H       
  49 H49           -3.1723    -7.0044     3.7210 H       
  50 H50            5.0262     0.4487    -0.3646 H       
  51 H51            5.0916     1.6171    -2.5300 H       
  52 H52            3.0234     1.9213    -3.8293 H       
  53 H53            0.8857     1.0583    -2.9670 H       
  54 H54            0.8137    -0.1208    -0.8076 H       
@<TRIPOS>BOND
   1    1    2 1
   2    1    3 1
   3    1    4 2
   4    2   13 1
   5    2   29 1
   6    3   23 1
   7    4   21 1
   8    5    6 ar
   9    5   11 1
  10    5   15 ar
  11    6    7 1
  12    6   12 ar
  13    7    8 1
  14    7   30 1
  15    7   31 1
  16    8    9 1
  17    8   32 1
  18    8   33 1
  19    9   10 1
  20    9   16 1
  21    9   34 1
  22   10   11 1
  23   10   35 1
  24   10   36 1
  25   11   37 1
  26   11   38 1
  27   12   13 ar
  28   12   39 1
  29   13   14 ar
  30   14   15 ar
  31   14   40 1
  32   15   41 1
  33   16   17 1
  34   16   20 1
  35   17   18 1
  36   17   42 1
  37   17   43 1
  38   18   19 1
  39   18   44 1
  40   18   45 1
  41   19   20 1
  42   19   46 1
  43   19   47 1
  44   20   48 1
  45   20   49 1
  46   21   22 3
  47   23   24 ar
  48   23   28 ar
  49   24   25 ar
  50   24   50 1
  51   25   26 ar
  52   25   51 1
  53   26   27 ar
  54   26   52 1
  55   27   28 ar
  56   27   53 1
  57   28   54 1

#	End of record

