#	Name: ASD05420023
#	Creating user name:	WinNT
#	Creation time:	15. 06. 2019 20:59

#	Modifying user name:	WinNT
#	Modification time:	15. 06. 2019 20:59

#	Program:	/corina/corina34_cracker 3.40 0067  02.08.2006

@<TRIPOS>MOLECULE
ASD05420023
  33   34    0    0    0
SMALL
NO_CHARGES


@<TRIPOS>ATOM
   1 C1            -0.0424     1.3358    -0.0555 C.ar    
   2 C2             0.0306    -0.0483     0.0485 C.ar    
   3 C3             1.2679    -0.6744     0.0983 C.ar    
   4 C4             2.4288     0.0843     0.0439 C.ar    
   5 C5             2.3486     1.4676    -0.0602 C.ar    
   6 C6             1.1149     2.0879    -0.1095 C.ar    
   7 N7             3.6762    -0.5419     0.0941 N.pl3   
   8 C8             4.9011     0.2598     0.0366 C.3     
   9 C9             6.1005    -0.6498     0.1081 C.ar    
  10 C10            6.6532    -1.1567    -1.0533 C.ar    
  11 C11            7.7534    -1.9905    -0.9890 C.ar    
  12 C12            8.3022    -2.3181     0.2392 C.ar    
  13 C13            7.7479    -1.8098     1.4018 C.ar    
  14 C14            6.6509    -0.9720     1.3347 C.ar    
  15 F15            9.3775    -3.1335     0.3033 F       
  16 N16           -1.1400    -0.8081     0.1035 N.pl3   
  17 N17            1.3495    -2.1482     0.2096 N.pl3   
  18 O18            1.3852    -2.8339    -0.7964 O.2     
  19 O19            1.3809    -2.6752     1.3072 O.2     
  20 N20           -1.3619     2.0041    -0.1148 N.pl3   
  21 O21           -2.2813     1.4839    -0.7212 O.2     
  22 O22           -1.5282     3.0741     0.4428 O.2     
  23 H23            3.2516     2.0586    -0.1025 H       
  24 H24            1.0554     3.1632    -0.1904 H       
  25 H25            3.7316    -1.5075     0.1671 H       
  26 H26            4.9251     0.8200    -0.8981 H       
  27 H27            4.9208     0.9538     0.8769 H       
  28 H28            6.2247    -0.9012    -2.0112 H       
  29 H29            8.1847    -2.3866    -1.8964 H       
  30 H30            8.1751    -2.0648     2.3604 H       
  31 H31            6.2208    -0.5721     2.2411 H       
  32 H32           -2.0007    -0.3678     0.1824 H       
  33 H33           -1.0924    -1.7760     0.0626 H       
@<TRIPOS>BOND
   1    1    2 ar
   2    1    6 ar
   3    1   20 1
   4    2    3 ar
   5    2   16 1
   6    3    4 ar
   7    3   17 1
   8    4    5 ar
   9    4    7 1
  10    5    6 ar
  11    5   23 1
  12    6   24 1
  13    7    8 1
  14    7   25 1
  15    8    9 1
  16    8   26 1
  17    8   27 1
  18    9   10 ar
  19    9   14 ar
  20   10   11 ar
  21   10   28 1
  22   11   12 ar
  23   11   29 1
  24   12   13 ar
  25   12   15 1
  26   13   14 ar
  27   13   30 1
  28   14   31 1
  29   16   32 1
  30   16   33 1
  31   17   18 2
  32   17   19 2
  33   20   21 2
  34   20   22 2

#	End of record

