#	Name: ASD01150243
#	Creating user name:	WinNT
#	Creation time:	15. 06. 2019 19:03

#	Modifying user name:	WinNT
#	Modification time:	15. 06. 2019 19:03

#	Program:	/corina/corina34_cracker 3.40 0067  02.08.2006

@<TRIPOS>MOLECULE
ASD01150243
  70   74    0    0    0
SMALL
NO_CHARGES


@<TRIPOS>ATOM
   1 C1            -0.1244     1.5186    -0.2565 C.ar    
   2 C2            -0.0762     0.1246    -0.3674 C.ar    
   3 C3            -1.2156    -0.6172    -0.3642 C.ar    
   4 C4            -2.4662     0.0156    -0.2482 C.ar    
   5 C5            -2.5200     1.4263    -0.1356 C.ar    
   6 C6            -1.3343     2.1700    -0.1354 C.ar    
   7 N7            -3.5975    -0.6979    -0.2438 N.ar    
   8 C8            -4.7738    -0.1280    -0.1370 C.ar    
   9 C9            -4.9148     1.2499    -0.0228 C.ar    
  10 C10           -3.7851     2.0573    -0.0190 C.ar    
  11 N11            1.0617     2.2556    -0.2626 N.3     
  12 C12           -3.8974     3.5288     0.1009 C.ar    
  13 C13           -6.2857     1.8641     0.0973 C.3     
  14 C14           -6.9697     1.8564    -1.2713 C.3     
  15 O15           -7.0670     1.1078     1.0245 O.3     
  16 C16           -6.0083    -0.9922    -0.1388 C.3     
  17 C17           -3.3860     4.1806     1.2234 C.ar    
  18 C18           -3.4926     5.5515     1.3302 C.ar    
  19 C19           -4.1070     6.2814     0.3250 C.ar    
  20 C20           -4.6167     5.6386    -0.7921 C.ar    
  21 C21           -4.5099     4.2687    -0.9109 C.ar    
  22 F22           -4.2099     7.6241     0.4346 F       
  23 C23            2.2286     1.3737    -0.3935 C.3     
  24 C24            3.4950     2.2198    -0.5428 C.3     
  25 C25            3.6483     3.1213     0.6854 C.3     
  26 C26            2.3989     3.9952     0.8266 C.3     
  27 C27            1.1643     3.0975     0.9362 C.3     
  28 C28           -8.0862     1.7578     1.6476 C.ar    
  29 C29           -8.3995     3.0605     1.2889 C.ar    
  30 C30           -9.4346     3.7212     1.9208 C.ar    
  31 C31          -10.1618     3.0810     2.9156 C.ar    
  32 C32           -9.8475     1.7768     3.2741 C.ar    
  33 C33           -8.8154     1.1158     2.6374 C.ar    
  34 N34          -11.2105     3.7499     3.5567 N.pl3   
  35 C35          -11.4604     5.1648     3.2707 C.3     
  36 C36          -12.0585     3.0352     4.5140 C.3     
  37 H37            0.8801    -0.3694    -0.4572 H       
  38 H38           -1.1604    -1.6922    -0.4511 H       
  39 H39           -1.3668     3.2461    -0.0500 H       
  40 H40           -6.1942     2.8907     0.4520 H       
  41 H41           -6.9777     0.8411    -1.6678 H       
  42 H42           -7.9941     2.2141    -1.1676 H       
  43 H43           -6.4244     2.5086    -1.9536 H       
  44 H44           -6.2081    -1.3425     0.8738 H       
  45 H45           -6.8582    -0.4110    -0.4965 H       
  46 H46           -5.8516    -1.8483    -0.7951 H       
  47 H47           -2.9076     3.6126     2.0076 H       
  48 H48           -3.0970     6.0570     2.1987 H       
  49 H49           -5.0950     6.2118    -1.5726 H       
  50 H50           -4.9071     3.7687    -1.7819 H       
  51 H51            2.3125     0.7481     0.4951 H       
  52 H52            2.1087     0.7410    -1.2729 H       
  53 H53            4.3626     1.5651    -0.6242 H       
  54 H54            3.4176     2.8357    -1.4388 H       
  55 H55            3.7647     2.5054     1.5771 H       
  56 H56            4.5255     3.7569     0.5635 H       
  57 H57            2.4835     4.6088     1.7235 H       
  58 H58            2.3043     4.6389    -0.0479 H       
  59 H59            0.2715     3.7169     1.0225 H       
  60 H60            1.2532     2.4638     1.8186 H       
  61 H61           -7.8336     3.5584     0.5155 H       
  62 H62           -9.6782     4.7357     1.6417 H       
  63 H63          -10.4125     1.2781     4.0476 H       
  64 H64           -8.5711     0.1013     2.9158 H       
  65 H65          -12.1582     5.2494     2.4376 H       
  66 H66          -11.8869     5.6438     4.1520 H       
  67 H67          -10.5219     5.6540     3.0097 H       
  68 H68          -11.6691     2.0282     4.6632 H       
  69 H69          -12.0619     3.5681     5.4649 H       
  70 H70          -13.0756     2.9777     4.1262 H       
@<TRIPOS>BOND
   1    1    2 ar
   2    1   11 1
   3    1    6 ar
   4    2    3 ar
   5    2   37 1
   6    3    4 ar
   7    3   38 1
   8    4    5 ar
   9    4    7 ar
  10    5    6 ar
  11    5   10 ar
  12    6   39 1
  13    7    8 ar
  14    8    9 ar
  15    8   16 1
  16    9   10 ar
  17    9   13 1
  18   10   12 1
  19   11   23 1
  20   11   27 1
  21   12   17 ar
  22   12   21 ar
  23   13   14 1
  24   13   15 1
  25   13   40 1
  26   14   41 1
  27   14   42 1
  28   14   43 1
  29   15   28 1
  30   16   44 1
  31   16   45 1
  32   16   46 1
  33   17   18 ar
  34   17   47 1
  35   18   19 ar
  36   18   48 1
  37   19   20 ar
  38   19   22 1
  39   20   21 ar
  40   20   49 1
  41   21   50 1
  42   23   24 1
  43   23   51 1
  44   23   52 1
  45   24   25 1
  46   24   53 1
  47   24   54 1
  48   25   26 1
  49   25   55 1
  50   25   56 1
  51   26   27 1
  52   26   57 1
  53   26   58 1
  54   27   59 1
  55   27   60 1
  56   28   29 ar
  57   28   33 ar
  58   29   30 ar
  59   29   61 1
  60   30   31 ar
  61   30   62 1
  62   31   32 ar
  63   31   34 1
  64   32   33 ar
  65   32   63 1
  66   33   64 1
  67   34   35 1
  68   34   36 1
  69   35   65 1
  70   35   66 1
  71   35   67 1
  72   36   68 1
  73   36   69 1
  74   36   70 1

#	End of record

