#	Name: ASD02038631
#	Creating user name:	WinNT
#	Creation time:	15. 06. 2019 20:17

#	Modifying user name:	WinNT
#	Modification time:	15. 06. 2019 20:17

#	Program:	/corina/corina34_cracker 3.40 0067  02.08.2006

@<TRIPOS>MOLECULE
ASD02038631
  59   60    0    0    0
SMALL
NO_CHARGES


@<TRIPOS>ATOM
   1 C1            -0.2088     0.8645     0.4676 C.ar    
   2 C2            -0.1898    -0.5099     0.3000 C.ar    
   3 C3            -1.3762    -1.2078     0.1718 C.ar    
   4 C4            -2.5869    -0.5291     0.2113 C.ar    
   5 C5            -2.6024     0.8498     0.3796 C.ar    
   6 C6            -1.4146     1.5418     0.5125 C.ar    
   7 N7            -3.7878    -1.2318     0.0815 N.pl3   
   8 C8            -5.0644    -0.5145     0.1233 C.3     
   9 C9            -6.2145    -1.5102    -0.0406 C.3     
  10 N10           -7.4947    -0.7909     0.0014 N.3     
  11 C11           -8.6055    -1.6702    -0.3869 C.3     
  12 O12           -9.6826    -0.8806    -0.8955 O.3     
  13 C13           -9.5096    -0.4667    -2.2523 C.3     
  14 C14          -10.6976     0.3549    -2.6822 C.ar    
  15 C15          -10.6885     1.7263    -2.5048 C.ar    
  16 C16          -11.7919    -0.2637    -3.2583 C.ar    
  17 C17          -12.8823     0.4861    -3.6534 C.ar    
  18 C18          -12.8788     1.8633    -3.4715 C.ar    
  19 C19          -11.7755     2.4821    -2.8976 C.ar    
  20 Cl20           1.3247    -1.3570     0.2503 Cl      
  21 Cl21           1.2825     1.7385     0.6290 Cl      
  22 C22           -7.7261    -0.2050     1.3285 C.3     
  23 C23           -8.9310     0.7360     1.2675 C.3     
  24 C24           -9.1720     1.3462     2.6497 C.3     
  25 C25          -10.3769     2.2872     2.5887 C.3     
  26 N26          -13.9799     2.6247    -3.8700 N.am    
  27 S27          -15.3696     2.6051    -2.9697 S.o2    
  28 O28          -16.2435     3.4918    -3.6548 O.2     
  29 O29          -15.6821     1.2252    -2.8376 O.2     
  30 C30          -14.8814     3.3034    -1.3683 C.3     
  31 H31           -1.3614    -2.2798     0.0407 H       
  32 H32           -3.5428     1.3799     0.4102 H       
  33 H33           -1.4266     2.6137     0.6437 H       
  34 H34           -3.7760    -2.1946    -0.0363 H       
  35 H35           -5.1617    -0.0013     1.0801 H       
  36 H36           -5.0978     0.2155    -0.6855 H       
  37 H37           -6.1172    -2.0233    -0.9973 H       
  38 H38           -6.1812    -2.2401     0.7683 H       
  39 H39           -8.2679    -2.3635    -1.1572 H       
  40 H40           -8.9459    -2.2315     0.4833 H       
  41 H41           -8.6034     0.1332    -2.3364 H       
  42 H42           -9.4246    -1.3450    -2.8921 H       
  43 H43           -9.8305     2.2067    -2.0582 H       
  44 H44          -11.7939    -1.3344    -3.3998 H       
  45 H45          -13.7365     0.0025    -4.1037 H       
  46 H46          -11.7697     3.5526    -2.7545 H       
  47 H47           -7.9223    -1.0003     2.0475 H       
  48 H48           -6.8433     0.3546     1.6376 H       
  49 H49           -8.7348     1.5313     0.5484 H       
  50 H50           -9.8138     0.1764     0.9584 H       
  51 H51           -9.3682     0.5509     3.3687 H       
  52 H52           -8.2892     1.9058     2.9588 H       
  53 H53          -10.1807     3.0825     1.8696 H       
  54 H54          -11.2597     1.7276     2.2796 H       
  55 H55          -10.5486     2.7219     3.5734 H       
  56 H56          -13.9305     3.1650    -4.6741 H       
  57 H57          -14.4222     4.2799    -1.5225 H       
  58 H58          -15.7623     3.4120    -0.7355 H       
  59 H59          -14.1664     2.6380    -0.8845 H       
@<TRIPOS>BOND
   1    1    2 ar
   2    1   21 1
   3    1    6 ar
   4    2    3 ar
   5    2   20 1
   6    3    4 ar
   7    3   31 1
   8    4    5 ar
   9    4    7 1
  10    5    6 ar
  11    5   32 1
  12    6   33 1
  13    7    8 1
  14    7   34 1
  15    8    9 1
  16    8   35 1
  17    8   36 1
  18    9   10 1
  19    9   37 1
  20    9   38 1
  21   10   11 1
  22   10   22 1
  23   11   12 1
  24   11   39 1
  25   11   40 1
  26   12   13 1
  27   13   14 1
  28   13   41 1
  29   13   42 1
  30   14   15 ar
  31   14   16 ar
  32   15   19 ar
  33   15   43 1
  34   16   17 ar
  35   16   44 1
  36   17   18 ar
  37   17   45 1
  38   18   19 ar
  39   18   26 1
  40   19   46 1
  41   22   23 1
  42   22   47 1
  43   22   48 1
  44   23   24 1
  45   23   49 1
  46   23   50 1
  47   24   25 1
  48   24   51 1
  49   24   52 1
  50   25   53 1
  51   25   54 1
  52   25   55 1
  53   26   27 am
  54   26   56 1
  55   27   28 2
  56   27   29 2
  57   27   30 1
  58   30   57 1
  59   30   58 1
  60   30   59 1

#	End of record

