#	Name: ASD09800052
#	Creating user name:	WinNT
#	Creation time:	15. 06. 2019 21:24

#	Modifying user name:	WinNT
#	Modification time:	15. 06. 2019 21:24

#	Program:	/corina/corina34_cracker 3.40 0067  02.08.2006

@<TRIPOS>MOLECULE
ASD09800052
  61   66    0    0    0
SMALL
NO_CHARGES


@<TRIPOS>ATOM
   1 C1            -3.1981     0.7518     3.5186 C.2     
   2 N2            -4.1702    -0.0806     3.8443 N.2     
   3 C3            -4.9310    -0.6619     2.9077 C.2     
   4 C4            -4.7399    -0.4254     1.5971 C.2     
   5 C5            -2.9588     1.0397     2.1597 C.2     
   6 C6            -2.0514     1.8414     1.4758 C.2     
   7 N7            -3.7416     0.4334     1.1948 N.pl3   
   8 C8            -3.3115     0.8737    -0.0013 C.2     
   9 N9            -2.3156     1.7060     0.1657 N.2     
  10 C10           -0.9966     2.6832     2.0763 C.ar    
  11 C11            0.1117     4.8481     2.3302 C.ar    
  12 C12            1.0182     4.2553     3.2350 C.ar    
  13 C13            0.9097     2.9131     3.5356 C.ar    
  14 C14           -0.0853     2.1324     2.9645 C.ar    
  15 C15           -0.9057     4.0576     1.7444 C.ar    
  16 N16            2.0270     5.0240     3.8196 N.am    
  17 C17            3.1116     4.4232     4.3479 C.2     
  18 N18            4.0296     5.1529     5.0122 N.am    
  19 O19            3.2619     3.2229     4.2252 O.2     
  20 N20           -2.4240     1.3412     4.5042 N.pl3   
  21 C21           -3.8866     0.4659    -1.3332 C.3     
  22 C22           -5.3819     0.6991    -1.5582 C.3     
  23 C23           -4.3544     1.5801    -2.2716 C.3     
  24 C24           -3.2620    -0.7778    -1.9687 C.3     
  25 C25            0.2018     6.2098     1.9996 C.ar    
  26 C26           -1.8053     4.6480     0.8457 C.ar    
  27 C27           -1.6901     5.9725     0.5476 C.ar    
  28 C28           -0.6890     6.7512     1.1232 C.ar    
  29 C29            6.3914     6.6584     5.4065 C.3     
  30 C30            5.2231     7.2411     4.6006 C.3     
  31 C31            3.9120     6.6155     5.0869 C.3     
  32 C32            5.1637     4.5003     5.6805 C.3     
  33 C33            6.4633     5.1452     5.1888 C.3     
  34 H34           -5.7169    -1.3373     3.2119 H       
  35 H35           -5.3675    -0.9081     0.8626 H       
  36 H36            1.6064     2.4647     4.2284 H       
  37 H37           -0.1508     1.0838     3.2148 H       
  38 H38            1.9470     5.9904     3.8454 H       
  39 H39           -2.5468     1.0893     5.4328 H       
  40 H40           -1.7591     2.0060     4.2659 H       
  41 H41           -5.9206    -0.0334    -2.1594 H       
  42 H42           -5.9496     1.1474    -0.7429 H       
  43 H43           -4.2462     2.6081    -1.9256 H       
  44 H44           -4.2171     1.4273    -3.3421 H       
  45 H45           -3.4251    -1.6383    -1.3198 H       
  46 H46           -3.7244    -0.9614    -2.9386 H       
  47 H47           -2.1916    -0.6199    -2.1006 H       
  48 H48            0.9735     6.8249     2.4384 H       
  49 H49           -2.5859     4.0556     0.3916 H       
  50 H50           -2.3844     6.4247    -0.1450 H       
  51 H51           -0.6177     7.7988     0.8704 H       
  52 H52            7.3236     7.1195     5.0800 H       
  53 H53            6.2382     6.8609     6.4665 H       
  54 H54            5.1888     8.3217     4.7391 H       
  55 H55            5.3609     7.0135     3.5436 H       
  56 H56            3.0907     6.9489     4.4525 H       
  57 H57            3.7247     6.9148     6.1181 H       
  58 H58            5.0764     4.6306     6.7592 H       
  59 H59            5.1685     3.4376     5.4380 H       
  60 H60            6.5903     4.9361     4.1267 H       
  61 H61            7.3082     4.7376     5.7439 H       
@<TRIPOS>BOND
   1    1    2 2
   2    1   20 1
   3    1    5 1
   4    2    3 1
   5    3    4 2
   6    3   34 1
   7    4    7 1
   8    4   35 1
   9    5    7 1
  10    5    6 2
  11    6    9 1
  12    6   10 1
  13    7    8 1
  14    8    9 2
  15    8   21 1
  16   10   15 ar
  17   10   14 ar
  18   11   12 ar
  19   11   15 ar
  20   11   25 ar
  21   12   13 ar
  22   12   16 1
  23   13   14 ar
  24   13   36 1
  25   14   37 1
  26   15   26 ar
  27   16   17 am
  28   16   38 1
  29   17   18 am
  30   17   19 2
  31   18   32 1
  32   18   31 1
  33   20   39 1
  34   20   40 1
  35   21   22 1
  36   21   23 1
  37   21   24 1
  38   22   23 1
  39   22   41 1
  40   22   42 1
  41   23   43 1
  42   23   44 1
  43   24   45 1
  44   24   46 1
  45   24   47 1
  46   25   28 ar
  47   25   48 1
  48   26   27 ar
  49   26   49 1
  50   27   28 ar
  51   27   50 1
  52   28   51 1
  53   29   30 1
  54   29   33 1
  55   29   52 1
  56   29   53 1
  57   30   31 1
  58   30   54 1
  59   30   55 1
  60   31   56 1
  61   31   57 1
  62   32   33 1
  63   32   58 1
  64   32   59 1
  65   33   60 1
  66   33   61 1

#	End of record

