#	Name: ASD01814735
#	Creating user name:	WinNT
#	Creation time:	15. 06. 2019 19:32

#	Modifying user name:	WinNT
#	Modification time:	15. 06. 2019 19:32

#	Program:	/corina/corina34_cracker 3.40 0067  02.08.2006

@<TRIPOS>MOLECULE
ASD01814735
  51   54    0    0    0
SMALL
NO_CHARGES


@<TRIPOS>ATOM
   1 O1            -0.0173     1.4248     0.0099 O.3     
   2 C2             0.0021    -0.0041     0.0020 C.3     
   3 H3             0.5123    -0.3556    -0.8948 H       
   4 C4             0.7421    -0.5109     1.2415 C.3     
   5 C5             0.7628    -2.0407     1.2331 C.3     
   6 C6            -0.6726    -2.5703     1.2440 C.3     
   7 C7            -1.4126    -2.0635     0.0045 C.3     
   8 C8            -1.4333    -0.5336     0.0129 C.3     
   9 H9            -1.9435    -0.1821     0.9097 H       
  10 N10           -2.1419    -0.0483    -1.1740 N.am    
  11 C11           -3.4850     0.0621    -1.1588 C.2     
  12 O12           -4.1085    -0.2410    -0.1603 O.2     
  13 C13           -4.2002     0.5520    -2.3568 C.ar    
  14 C14           -5.5876     0.6683    -2.3302 C.ar    
  15 C15           -6.2477     1.1273    -3.4588 C.ar    
  16 C16           -7.7482     1.2677    -3.4696 C.3     
  17 C17           -8.3646     0.0257    -4.0600 C.ar    
  18 C18           -8.5880    -0.0541    -5.4219 C.ar    
  19 C19           -9.1533    -1.1925    -5.9645 C.ar    
  20 C20           -9.4955    -2.2536    -5.1434 C.ar    
  21 F21          -10.0478    -3.3672    -5.6728 F       
  22 C22           -9.2709    -2.1727    -3.7796 C.ar    
  23 C23           -8.7010    -1.0352    -3.2400 C.ar    
  24 C24           -5.4961     1.4555    -4.5796 C.ar    
  25 O25           -6.1217     1.9002    -5.6996 O.3     
  26 C26           -5.3057     2.5651    -6.6705 C.3     
  27 C27           -4.0315     1.7352    -6.8766 C.3     
  28 O28           -3.3494     1.6386    -5.6219 O.3     
  29 C29           -4.1059     1.3180    -4.5383 C.ar    
  30 N30           -3.5107     0.8812    -3.4445 N.ar    
  31 H31            0.8606     1.8301     0.0037 H       
  32 H32            1.7647    -0.1336     1.2338 H       
  33 H33            0.2319    -0.1594     2.1383 H       
  34 H34            1.2730    -2.3923     0.3363 H       
  35 H35            1.2900    -2.4018     2.1162 H       
  36 H36           -0.6578    -3.6602     1.2380 H       
  37 H37           -1.1828    -2.2188     2.1408 H       
  38 H38           -0.9024    -2.4150    -0.8923 H       
  39 H39           -2.4352    -2.4408     0.0122 H       
  40 H40           -1.6443     0.1935    -1.9708 H       
  41 H41           -6.1418     0.4040    -1.4418 H       
  42 H42           -8.1079     1.4022    -2.4495 H       
  43 H43           -8.0278     2.1330    -4.0706 H       
  44 H44           -8.3211     0.7737    -6.0621 H       
  45 H45           -9.3284    -1.2543    -7.0284 H       
  46 H46           -9.5377    -2.9997    -3.1382 H       
  47 H47           -8.5219    -0.9735    -2.1767 H       
  48 H48           -5.8479     2.6464    -7.6127 H       
  49 H49           -5.0425     3.5596    -6.3103 H       
  50 H50           -4.2956     0.7381    -7.2289 H       
  51 H51           -3.3883     2.2252    -7.6076 H       
@<TRIPOS>BOND
   1    1    2 1
   2    1   31 1
   3    2    3 1
   4    2    8 1
   5    2    4 1
   6    4    5 1
   7    4   32 1
   8    4   33 1
   9    5    6 1
  10    5   34 1
  11    5   35 1
  12    6    7 1
  13    6   36 1
  14    6   37 1
  15    7    8 1
  16    7   38 1
  17    7   39 1
  18    8    9 1
  19    8   10 1
  20   10   11 am
  21   10   40 1
  22   11   12 2
  23   11   13 1
  24   13   30 ar
  25   13   14 ar
  26   14   15 ar
  27   14   41 1
  28   15   16 1
  29   15   24 ar
  30   16   17 1
  31   16   42 1
  32   16   43 1
  33   17   23 ar
  34   17   18 ar
  35   18   19 ar
  36   18   44 1
  37   19   20 ar
  38   19   45 1
  39   20   21 1
  40   20   22 ar
  41   22   23 ar
  42   22   46 1
  43   23   47 1
  44   24   29 ar
  45   24   25 1
  46   25   26 1
  47   26   27 1
  48   26   48 1
  49   26   49 1
  50   27   28 1
  51   27   50 1
  52   27   51 1
  53   28   29 1
  54   29   30 ar

#	End of record

