#	Name: ASD02500316
#	Creating user name:	WinNT
#	Creation time:	15. 06. 2019 20:22

#	Modifying user name:	WinNT
#	Modification time:	15. 06. 2019 20:22

#	Program:	/corina/corina34_cracker 3.40 0067  02.08.2006

@<TRIPOS>MOLECULE
ASD02500316
  63   66    0    0    0
SMALL
NO_CHARGES


@<TRIPOS>ATOM
   1 N1            -0.1088     0.5950    -0.7086 N.am    
   2 C2             0.0191    -0.8581    -0.8869 C.3     
   3 C3             0.9465    -1.1259    -2.0788 C.3     
   4 N4             2.1660    -0.3224    -1.9146 N.am    
   5 C5             2.0382     1.1308    -1.7363 C.3     
   6 C6             1.1108     1.3985    -0.5444 C.3     
   7 C7            -1.3225     1.1811    -0.7013 C.2     
   8 O8            -2.3235     0.5070    -0.8430 O.2     
   9 O9            -1.4257     2.5134    -0.5370 O.3     
  10 C10            3.3800    -0.9078    -1.9270 C.2     
  11 C11            4.5993    -0.0784    -1.8855 C.ar    
  12 C12            5.6782    -0.4590    -1.0822 C.ar    
  13 C13            6.8142     0.3168    -1.0456 C.ar    
  14 C14            6.8896     1.4796    -1.8075 C.ar    
  15 C15            5.8166     1.8615    -2.6081 C.ar    
  16 C16            4.6803     1.0867    -2.6537 C.ar    
  17 O17            3.4702    -2.1196    -1.9723 O.2     
  18 S18            8.7080     2.8209    -3.1760 S.o2    
  19 O19            7.6609     3.4630    -3.8905 O.2     
  20 O20            9.9165     3.4748    -2.8137 O.2     
  21 N21            8.0389     2.2613    -1.7683 N.am    
  22 N22           10.7771     0.7539    -2.4901 N.ar    
  23 C23           11.7056    -0.0584    -2.0472 C.ar    
  24 C24           12.1021    -1.1822    -2.7691 C.ar    
  25 C25           11.5182    -1.4605    -3.9720 C.ar    
  26 C26           10.5210    -0.5863    -4.4444 C.ar    
  27 C27            9.8766    -0.8072    -5.6719 C.ar    
  28 C28            8.9172     0.0620    -6.0942 C.ar    
  29 C29            8.5655     1.1682    -5.3237 C.ar    
  30 C30            9.1705     1.4131    -4.1294 C.ar    
  31 C31           10.1659     0.5390    -3.6595 C.ar    
  32 C32           -2.7642     3.0761    -0.5397 C.3     
  33 C33           -3.5799     2.4572     0.5973 C.3     
  34 C34           -2.6810     4.5910    -0.3417 C.3     
  35 C35           -3.4422     2.7731    -1.8774 C.3     
  36 H36            0.4438    -1.3013     0.0138 H       
  37 H37           -0.9622    -1.2904    -1.0826 H       
  38 H38            1.2068    -2.1839    -2.1093 H       
  39 H39            0.4441    -0.8434    -3.0039 H       
  40 H40            3.0195     1.5631    -1.5406 H       
  41 H41            1.6135     1.5739    -2.6370 H       
  42 H42            0.8505     2.4565    -0.5139 H       
  43 H43            1.6132     1.1160     0.3807 H       
  44 H44            5.6202    -1.3608    -0.4907 H       
  45 H45            7.6480     0.0235    -0.4250 H       
  46 H46            5.8779     2.7645    -3.1974 H       
  47 H47            3.8502     1.3808    -3.2789 H       
  48 H48            8.4487     2.4789    -0.9165 H       
  49 H49           12.1762     0.1492    -1.0975 H       
  50 H50           12.8706    -1.8324    -2.3781 H       
  51 H51           11.8135    -2.3271    -4.5450 H       
  52 H52           10.1404    -1.6613    -6.2778 H       
  53 H53            8.4219    -0.1087    -7.0387 H       
  54 H54            7.8020     1.8434    -5.6809 H       
  55 H55           -3.0969     2.6731     1.5502 H       
  56 H56           -4.5847     2.8797     0.5953 H       
  57 H57           -3.6392     1.3780     0.4562 H       
  58 H58           -2.0999     5.0318    -1.1517 H       
  59 H59           -3.6858     5.0134    -0.3437 H       
  60 H60           -2.1980     4.8068     0.6113 H       
  61 H61           -3.5015     1.6939    -2.0184 H       
  62 H62           -4.4470     3.1955    -1.8793 H       
  63 H63           -2.8611     3.2140    -2.6873 H       
@<TRIPOS>BOND
   1    1    2 1
   2    1    6 1
   3    1    7 am
   4    2    3 1
   5    2   36 1
   6    2   37 1
   7    3    4 1
   8    3   38 1
   9    3   39 1
  10    4    5 1
  11    4   10 am
  12    5    6 1
  13    5   40 1
  14    5   41 1
  15    6   42 1
  16    6   43 1
  17    7    8 2
  18    7    9 1
  19    9   32 1
  20   10   11 1
  21   10   17 2
  22   11   12 ar
  23   11   16 ar
  24   12   13 ar
  25   12   44 1
  26   13   14 ar
  27   13   45 1
  28   14   15 ar
  29   14   21 1
  30   15   16 ar
  31   15   46 1
  32   16   47 1
  33   18   19 2
  34   18   20 2
  35   18   21 am
  36   18   30 1
  37   21   48 1
  38   22   23 ar
  39   22   31 ar
  40   23   24 ar
  41   23   49 1
  42   24   25 ar
  43   24   50 1
  44   25   26 ar
  45   25   51 1
  46   26   27 ar
  47   26   31 ar
  48   27   28 ar
  49   27   52 1
  50   28   29 ar
  51   28   53 1
  52   29   30 ar
  53   29   54 1
  54   30   31 ar
  55   32   33 1
  56   32   35 1
  57   32   34 1
  58   33   55 1
  59   33   56 1
  60   33   57 1
  61   34   58 1
  62   34   59 1
  63   34   60 1
  64   35   61 1
  65   35   62 1
  66   35   63 1

#	End of record

