#	Name: ASD01918312
#	Creating user name:	WinNT
#	Creation time:	15. 06. 2019 20:11

#	Modifying user name:	WinNT
#	Modification time:	15. 06. 2019 20:11

#	Program:	/corina/corina34_cracker 3.40 0067  02.08.2006

@<TRIPOS>MOLECULE
ASD01918312
  45   48    0    0    0
SMALL
NO_CHARGES


@<TRIPOS>ATOM
   1 C1            -0.0187     1.5258     0.0104 C.3     
   2 C2             0.0021    -0.0041     0.0020 C.3     
   3 O3            -1.3481    -0.5340     0.1408 O.3     
   4 C4            -1.4281    -1.2636     1.2591 C.2     
   5 O5            -2.4469    -1.8222     1.6149 O.2     
   6 N6            -0.2819    -1.3229     1.9508 N.am    
   7 C7             0.7428    -0.5411     1.2419 C.3     
   8 H8             1.5741    -1.1801     0.9443 H       
   9 C9             1.2295     0.5968     2.1018 C.ar    
  10 C10            0.3625     1.2383     2.9680 C.ar    
  11 N11            0.7722     2.2359     3.7283 N.ar    
  12 C12            2.0160     2.6665     3.7003 C.ar    
  13 C13            2.9542     2.0722     2.8521 C.ar    
  14 C14            2.5494     1.0066     2.0372 C.ar    
  15 C15            4.3072     2.5401     2.8206 C.1     
  16 C16            5.4164     2.9238     2.7948 C.1     
  17 C17            6.7694     3.3918     2.7633 C.ar    
  18 C18            7.1665     4.4476     3.5882 C.ar    
  19 C19            8.4714     4.8926     3.5527 C.ar    
  20 C20            9.3866     4.2963     2.7031 C.ar    
  21 C21            9.0005     3.2507     1.8831 C.ar    
  22 C22            7.7004     2.7911     1.9118 C.ar    
  23 C23            0.6462    -0.5154    -1.2608 C.ar    
  24 C24            2.0069    -0.7574    -1.2929 C.ar    
  25 C25            2.5988    -1.2263    -2.4504 C.ar    
  26 C26            1.8283    -1.4541    -3.5780 C.ar    
  27 F27            2.4057    -1.9129    -4.7100 F       
  28 C28            0.4654    -1.2118    -3.5445 C.ar    
  29 C29           -0.1249    -0.7474    -2.3844 C.ar    
  30 H30            1.0039     1.9031     0.0027 H       
  31 H31           -0.5459     1.8868    -0.8726 H       
  32 H32           -0.5289     1.8773     0.9072 H       
  33 H33           -0.1496    -1.8027     2.7833 H       
  34 H34           -0.6673     0.9174     3.0227 H       
  35 H35            2.3136     3.4859     4.3378 H       
  36 H36            3.2485     0.5205     1.3730 H       
  37 H37            6.4533     4.9141     4.2515 H       
  38 H38            8.7797     5.7087     4.1894 H       
  39 H39           10.4071     4.6490     2.6796 H       
  40 H40            9.7201     2.7903     1.2223 H       
  41 H41            7.4017     1.9718     1.2748 H       
  42 H42            2.6078    -0.5796    -0.4133 H       
  43 H43            3.6619    -1.4146    -2.4755 H       
  44 H44           -0.1365    -1.3888    -4.4236 H       
  45 H45           -1.1886    -0.5623    -2.3568 H       
@<TRIPOS>BOND
   1    1    2 1
   2    1   30 1
   3    1   31 1
   4    1   32 1
   5    2    7 1
   6    2    3 1
   7    2   23 1
   8    3    4 1
   9    4    5 2
  10    4    6 am
  11    6    7 1
  12    6   33 1
  13    7    8 1
  14    7    9 1
  15    9   14 ar
  16    9   10 ar
  17   10   11 ar
  18   10   34 1
  19   11   12 ar
  20   12   13 ar
  21   12   35 1
  22   13   14 ar
  23   13   15 1
  24   14   36 1
  25   15   16 3
  26   16   17 1
  27   17   22 ar
  28   17   18 ar
  29   18   19 ar
  30   18   37 1
  31   19   20 ar
  32   19   38 1
  33   20   21 ar
  34   20   39 1
  35   21   22 ar
  36   21   40 1
  37   22   41 1
  38   23   29 ar
  39   23   24 ar
  40   24   25 ar
  41   24   42 1
  42   25   26 ar
  43   25   43 1
  44   26   27 1
  45   26   28 ar
  46   28   29 ar
  47   28   44 1
  48   29   45 1

#	End of record

