#	Name: ASD03090643
#	Creating user name:	WinNT
#	Creation time:	15. 06. 2019 20:29

#	Modifying user name:	WinNT
#	Modification time:	15. 06. 2019 20:29

#	Program:	/corina/corina34_cracker 3.40 0067  02.08.2006

@<TRIPOS>MOLECULE
ASD03090643
  32   33    0    0    0
SMALL
NO_CHARGES


@<TRIPOS>ATOM
   1 N1            -0.0162     1.3436     0.0094 N.am    
   2 C2            -0.2043     0.1128    -0.5067 C.2     
   3 O3             0.6901    -0.4298    -1.1263 O.2     
   4 N4            -1.3840    -0.5163    -0.3362 N.am    
   5 S5            -3.0121    -2.7145    -0.7400 S.3     
   6 C6            -1.5781    -1.7862    -0.8688 C.2     
   7 N7            -0.7023    -2.4649    -1.5467 N.2     
   8 N8            -1.0403    -3.6085    -1.9613 N.2     
   9 C9            -2.2395    -4.0000    -1.6685 C.2     
  10 C10           -2.8628    -5.3175    -2.0518 C.3     
  11 F11           -1.9070    -6.1188    -2.6854 F       
  12 F12           -3.3269    -5.9658    -0.9022 F       
  13 F13           -3.9332    -5.0909    -2.9236 F       
  14 C14            1.2465     1.9477    -0.0614 C.ar    
  15 C15            1.3526     3.3291    -0.2082 C.ar    
  16 C16            2.6030     3.9207    -0.2778 C.ar    
  17 C17            3.7425     3.1408    -0.2015 C.ar    
  18 C18            3.6379     1.7702    -0.0559 C.ar    
  19 C19            2.3935     1.1726     0.0201 C.ar    
  20 N20            5.0777     3.7753    -0.2765 N.pl3   
  21 O21            5.1717     4.9828    -0.4053 O.2     
  22 O22            6.0823     3.0899    -0.2095 O.2     
  23 O23            0.2313     4.0947    -0.2835 O.3     
  24 C24            0.4165     5.5036    -0.4337 C.3     
  25 H25           -0.7557     1.8128     0.4264 H       
  26 H26           -2.0976    -0.0834     0.1580 H       
  27 H27            2.6882     4.9913    -0.3919 H       
  28 H28            4.5305     1.1650     0.0029 H       
  29 H29            2.3147     0.1020     0.1383 H       
  30 H30            0.9777     5.8891     0.4176 H       
  31 H31            0.9686     5.7017    -1.3524 H       
  32 H32           -0.5553     5.9949    -0.4807 H       
@<TRIPOS>BOND
   1    1    2 am
   2    1   14 1
   3    1   25 1
   4    2    3 2
   5    2    4 am
   6    4    6 1
   7    4   26 1
   8    5    6 1
   9    5    9 1
  10    6    7 2
  11    7    8 1
  12    8    9 2
  13    9   10 1
  14   10   11 1
  15   10   12 1
  16   10   13 1
  17   14   15 ar
  18   14   19 ar
  19   15   16 ar
  20   15   23 1
  21   16   17 ar
  22   16   27 1
  23   17   18 ar
  24   17   20 1
  25   18   19 ar
  26   18   28 1
  27   19   29 1
  28   20   21 2
  29   20   22 2
  30   23   24 1
  31   24   30 1
  32   24   31 1
  33   24   32 1

#	End of record

