#	Name: ASD01816511
#	Creating user name:	WinNT
#	Creation time:	15. 06. 2019 19:35

#	Modifying user name:	WinNT
#	Modification time:	15. 06. 2019 19:35

#	Program:	/corina/corina34_cracker 3.40 0067  02.08.2006

@<TRIPOS>MOLECULE
ASD01816511
  68   74    0    0    0
SMALL
NO_CHARGES


@<TRIPOS>ATOM
   1 C1            -0.0167     1.3813     0.0096 C.ar    
   2 C2             0.0021    -0.0041     0.0020 C.ar    
   3 C3             1.1984    -0.6909    -0.0131 C.ar    
   4 C4             2.4015     0.0059    -0.0208 C.ar    
   5 C5             2.3790     1.4106    -0.0130 C.ar    
   6 C6             1.1663     2.0916     0.0022 C.ar    
   7 N7             3.6053    -0.6772    -0.0354 N.pl3   
   8 C8             4.7970    -0.0586    -0.0430 C.2     
   9 C9             4.9000     1.3103    -0.0366 C.2     
  10 C10            3.6670     2.1302    -0.0215 C.2     
  11 C11            5.9971     2.2730    -0.0414 C.2     
  12 N12            5.4245     3.4960    -0.0301 N.am    
  13 N13            4.0323     3.3799    -0.0183 N.2     
  14 C14            6.1259     4.7074    -0.0305 C.ar    
  15 O15            7.1914     2.0229    -0.0527 O.2     
  16 C16            3.5779    -2.1419    -0.0425 C.3     
  17 C17            3.5553    -2.6370    -1.4657 C.ar    
  18 C18            4.7430    -2.8861    -2.1285 C.ar    
  19 C19            4.7254    -3.3395    -3.4331 C.ar    
  20 C20            3.5137    -3.5456    -4.0786 C.ar    
  21 C21            2.3228    -3.2951    -3.4103 C.ar    
  22 C22            2.3467    -2.8468    -2.1041 C.ar    
  23 N23            3.4926    -4.0053    -5.4028 N.pl3   
  24 C24            2.3877    -4.2463    -6.1441 C.2     
  25 C25            2.7941    -4.6753    -7.3615 C.2     
  26 C26            4.1931    -4.6976    -7.3654 C.2     
  27 N27            4.6127    -4.2906    -6.1944 N.2     
  28 C28            7.0622     4.9691    -1.0223 C.ar    
  29 C29            7.7522     6.1656    -1.0200 C.ar    
  30 C30            7.5121     7.1021    -0.0315 C.ar    
  31 C31            6.5806     6.8443     0.9579 C.ar    
  32 C32            5.8829     5.6528     0.9579 C.ar    
  33 C33            4.8678     5.3730     2.0361 C.3     
  34 N34            5.4640     4.4986     3.0549 N.3     
  35 C35            4.5011     4.2038     4.1244 C.3     
  36 C36            5.1469     3.3066     5.1486 C.ar    
  37 N37            5.1510     2.0014     4.9614 N.ar    
  38 C38            5.7042     1.1779     5.8305 C.ar    
  39 C39            6.3039     1.6600     6.9782 C.ar    
  40 C40            6.3193     3.0272     7.2095 C.ar    
  41 C41            5.7332     3.8618     6.2705 C.ar    
  42 H42           -0.9602     1.9068     0.0169 H       
  43 H43           -0.9288    -0.5516     0.0083 H       
  44 H44            1.2004    -1.7709    -0.0185 H       
  45 H45            1.1506     3.1715     0.0077 H       
  46 H46            5.6983    -0.6536    -0.0540 H       
  47 H47            4.4657    -2.5244     0.4612 H       
  48 H48            2.6861    -2.4911     0.4779 H       
  49 H49            5.6853    -2.7256    -1.6258 H       
  50 H50            5.6534    -3.5332    -3.9505 H       
  51 H51            1.3787    -3.4541    -3.9100 H       
  52 H52            1.4207    -2.6517    -1.5837 H       
  53 H53            1.3646    -4.1197    -5.8222 H       
  54 H54            2.1520    -4.9516    -8.1847 H       
  55 H55            4.8191    -4.9951    -8.1937 H       
  56 H56            7.2507     4.2377    -1.7943 H       
  57 H57            8.4804     6.3698    -1.7910 H       
  58 H58            8.0532     8.0367    -0.0318 H       
  59 H59            6.3956     7.5778     1.7288 H       
  60 H60            4.5600     6.3113     2.4976 H       
  61 H61            3.9991     4.8812     1.5984 H       
  62 H62            5.8159     3.6485     2.6407 H       
  63 H63            4.1907     5.1340     4.6004 H       
  64 H64            3.6298     3.7039     3.7012 H       
  65 H65            5.6880     0.1144     5.6430 H       
  66 H66            6.7546     0.9805     7.6865 H       
  67 H67            6.7805     3.4325     8.0980 H       
  68 H68            5.7272     4.9317     6.4179 H       
@<TRIPOS>BOND
   1    1    2 ar
   2    1    6 ar
   3    1   42 1
   4    2    3 ar
   5    2   43 1
   6    3    4 ar
   7    3   44 1
   8    4    5 ar
   9    4    7 1
  10    5    6 ar
  11    5   10 1
  12    6   45 1
  13    7    8 1
  14    7   16 1
  15    8    9 2
  16    8   46 1
  17    9   10 1
  18    9   11 1
  19   10   13 2
  20   11   12 am
  21   11   15 2
  22   12   13 1
  23   12   14 1
  24   14   28 ar
  25   14   32 ar
  26   16   17 1
  27   16   47 1
  28   16   48 1
  29   17   18 ar
  30   17   22 ar
  31   18   19 ar
  32   18   49 1
  33   19   20 ar
  34   19   50 1
  35   20   21 ar
  36   20   23 1
  37   21   22 ar
  38   21   51 1
  39   22   52 1
  40   23   24 1
  41   23   27 1
  42   24   25 2
  43   24   53 1
  44   25   26 1
  45   25   54 1
  46   26   27 2
  47   26   55 1
  48   28   29 ar
  49   28   56 1
  50   29   30 ar
  51   29   57 1
  52   30   31 ar
  53   30   58 1
  54   31   32 ar
  55   31   59 1
  56   32   33 1
  57   33   34 1
  58   33   60 1
  59   33   61 1
  60   34   35 1
  61   34   62 1
  62   35   36 1
  63   35   63 1
  64   35   64 1
  65   36   37 ar
  66   36   41 ar
  67   37   38 ar
  68   38   39 ar
  69   38   65 1
  70   39   40 ar
  71   39   66 1
  72   40   41 ar
  73   40   67 1
  74   41   68 1

#	End of record

