#	Name: ASD03331670
#	Creating user name:	WinNT
#	Creation time:	15. 06. 2019 20:39

#	Modifying user name:	WinNT
#	Modification time:	15. 06. 2019 20:39

#	Program:	/corina/corina34_cracker 3.40 0067  02.08.2006

@<TRIPOS>MOLECULE
ASD03331670
  41   43    0    0    0
SMALL
NO_CHARGES


@<TRIPOS>ATOM
   1 C1             0.3230     1.3274    -0.5335 C.ar    
   2 C2             0.4048    -0.0508    -0.5511 C.ar    
   3 C3             1.6362    -0.6827    -0.4003 C.ar    
   4 C4             2.7870     0.0548    -0.2314 C.ar    
   5 C5             1.4834     2.0852    -0.3634 C.ar    
   6 C6             1.7583     3.5226    -0.2971 C.2     
   7 C7             2.7258     1.4439    -0.2108 C.ar    
   8 N8             3.6769     2.4315    -0.0630 N.pl3   
   9 C9             3.0814     3.6619    -0.1181 C.2     
  10 S10            3.9259     5.2016     0.0262 S.o2    
  11 O11            5.2934     4.8894     0.2536 O.2     
  12 O12            3.4822     6.0058    -1.0580 O.2     
  13 N13            3.3777     5.9338     1.4066 N.am    
  14 C14            3.6309     5.3190     2.7121 C.3     
  15 C15            1.9368     7.4057     5.3631 C.ar    
  16 C16            2.1476     6.4728     4.3653 C.ar    
  17 C17            3.4016     6.3368     3.7996 C.ar    
  18 C18            4.4454     7.1336     4.2314 C.ar    
  19 C19            4.2360     8.0666     5.2294 C.ar    
  20 C20            2.9812     8.2032     5.7960 C.ar    
  21 O21           -0.7220    -0.7941    -0.7160 O.3     
  22 C22           -0.5667    -2.2146    -0.7248 C.3     
  23 Cl23           2.7171     9.3755     7.0488 Cl      
  24 C24            0.7471     4.6345    -0.4087 C.3     
  25 H25           -0.6322     1.8165    -0.6551 H       
  26 H26            1.6894    -1.7613    -0.4155 H       
  27 H27            3.7369    -0.4457    -0.1146 H       
  28 H28            4.6265     2.2769     0.0607 H       
  29 H29            2.8890     6.7699     1.3509 H       
  30 H30            2.9541     4.4765     2.8543 H       
  31 H31            4.6619     4.9680     2.7545 H       
  32 H32            0.9560     7.5150     5.8019 H       
  33 H33            1.3325     5.8500     4.0276 H       
  34 H34            5.4249     7.0269     3.7890 H       
  35 H35            5.0517     8.6886     5.5672 H       
  36 H36            0.0961    -2.5026    -1.5407 H       
  37 H37           -0.1380    -2.5391     0.2234 H       
  38 H38           -1.5398    -2.6856    -0.8636 H       
  39 H39            0.3079     4.8257     0.5704 H       
  40 H40            1.2389     5.5380    -0.7690 H       
  41 H41           -0.0367     4.3438    -1.1081 H       
@<TRIPOS>BOND
   1    1    2 ar
   2    1    5 ar
   3    1   25 1
   4    2    3 ar
   5    2   21 1
   6    3    4 ar
   7    3   26 1
   8    4    7 ar
   9    4   27 1
  10    5    7 ar
  11    5    6 1
  12    6    9 2
  13    6   24 1
  14    7    8 1
  15    8    9 1
  16    8   28 1
  17    9   10 1
  18   10   11 2
  19   10   12 2
  20   10   13 am
  21   13   14 1
  22   13   29 1
  23   14   17 1
  24   14   30 1
  25   14   31 1
  26   15   16 ar
  27   15   20 ar
  28   15   32 1
  29   16   17 ar
  30   16   33 1
  31   17   18 ar
  32   18   19 ar
  33   18   34 1
  34   19   20 ar
  35   19   35 1
  36   20   23 1
  37   21   22 1
  38   22   36 1
  39   22   37 1
  40   22   38 1
  41   24   39 1
  42   24   40 1
  43   24   41 1

#	End of record

