#	Name: ASD01881507
#	Creating user name:	WinNT
#	Creation time:	15. 06. 2019 19:42

#	Modifying user name:	WinNT
#	Modification time:	15. 06. 2019 19:42

#	Program:	/corina/corina34_cracker 3.40 0067  02.08.2006

@<TRIPOS>MOLECULE
ASD01881507
  46   49    0    0    0
SMALL
NO_CHARGES


@<TRIPOS>ATOM
   1 C1            -0.0158     1.3122     0.0093 C.2     
   2 N2             0.0021    -0.0041     0.0020 N.2     
   3 C3             1.2855    -0.4483    -0.0022 C.ar    
   4 C4             2.1151     0.6875     0.0010 C.ar    
   5 N5             1.2674     1.7758    -0.0005 N.pl3   
   6 C6             1.8594    -1.7183    -0.0086 C.ar    
   7 C7             3.2462    -1.8447    -0.0078 C.ar    
   8 C8             4.0568    -0.7025    -0.0005 C.ar    
   9 C9             3.4967     0.5430     0.0031 C.ar    
  10 O10           -0.9131     2.3328     0.0314 O.3     
  11 C11            1.2236     3.2485    -0.0160 C.3     
  12 C12           -0.2458     3.5295    -0.4074 C.3     
  13 C13            3.8450    -3.1456    -0.0139 C.1     
  14 N14            4.3199    -4.1775    -0.0188 N.1     
  15 C15           -0.7821     4.7552     0.3347 C.3     
  16 O16           -2.1442     4.9780    -0.0356 O.3     
  17 C17           -2.1042     6.8498     1.4409 C.ar    
  18 C18           -2.7745     6.0365     0.5385 C.ar    
  19 C19           -4.1007     6.3202     0.2294 C.ar    
  20 C20           -4.7005     7.4102     0.8398 C.ar    
  21 C21           -3.9674     8.1738     1.7285 C.ar    
  22 N22           -2.7113     7.8776     1.9998 N.ar    
  23 C23           -4.6121     9.3612     2.3961 C.3     
  24 C24           -5.5679     8.8757     3.4877 C.3     
  25 C25           -3.5303    10.2443     3.0212 C.3     
  26 C26           -5.3925    10.1689     1.3572 C.3     
  27 H27            1.2331    -2.5982    -0.0138 H       
  28 H28            5.1317    -0.8074     0.0019 H       
  29 H29            4.1297     1.4180     0.0080 H       
  30 H30            1.4463     3.6536     0.9712 H       
  31 H31            1.9077     3.6491    -0.7641 H       
  32 H32           -0.3428     3.6545    -1.4859 H       
  33 H33           -0.7211     4.5847     1.4096 H       
  34 H34           -0.1863     5.6291     0.0711 H       
  35 H35           -1.0756     6.6358     1.6914 H       
  36 H36           -4.6494     5.7062    -0.4693 H       
  37 H37           -5.7286     7.6604     0.6232 H       
  38 H38           -5.0119     8.3003     4.2279 H       
  39 H39           -6.0341     9.7345     3.9706 H       
  40 H40           -6.3385     8.2466     3.0424 H       
  41 H41           -2.8494    10.5901     2.2435 H       
  42 H42           -3.9966    11.1031     3.5040 H       
  43 H43           -2.9743     9.6689     3.7613 H       
  44 H44           -6.1632     9.5397     0.9118 H       
  45 H45           -5.8588    11.0277     1.8400 H       
  46 H46           -4.7116    10.5147     0.5794 H       
@<TRIPOS>BOND
   1    1    2 2
   2    1    5 1
   3    1   10 1
   4    2    3 1
   5    3    4 ar
   6    3    6 ar
   7    4    5 1
   8    4    9 ar
   9    5   11 1
  10    6    7 ar
  11    6   27 1
  12    7    8 ar
  13    7   13 1
  14    8    9 ar
  15    8   28 1
  16    9   29 1
  17   10   12 1
  18   11   12 1
  19   11   30 1
  20   11   31 1
  21   12   15 1
  22   12   32 1
  23   13   14 3
  24   15   16 1
  25   15   33 1
  26   15   34 1
  27   16   18 1
  28   17   18 ar
  29   17   22 ar
  30   17   35 1
  31   18   19 ar
  32   19   20 ar
  33   19   36 1
  34   20   21 ar
  35   20   37 1
  36   21   22 ar
  37   21   23 1
  38   23   24 1
  39   23   26 1
  40   23   25 1
  41   24   38 1
  42   24   39 1
  43   24   40 1
  44   25   41 1
  45   25   42 1
  46   25   43 1
  47   26   44 1
  48   26   45 1
  49   26   46 1

#	End of record

