#	Name: ASD01812996
#	Creating user name:	WinNT
#	Creation time:	15. 06. 2019 19:29

#	Modifying user name:	WinNT
#	Modification time:	15. 06. 2019 19:29

#	Program:	/corina/corina34_cracker 3.40 0067  02.08.2006

@<TRIPOS>MOLECULE
ASD01812996
  51   55    0    0    0
SMALL
NO_CHARGES


@<TRIPOS>ATOM
   1 N1             0.0026     1.3185    -0.2219 N.ar    
   2 C2             0.0318     0.0058    -0.3456 C.ar    
   3 C3             1.2339    -0.6842    -0.3687 C.ar    
   4 C4             2.4113     0.0206    -0.2603 C.ar    
   5 C5             2.3614     1.4133    -0.1298 C.ar    
   6 C6             1.1073     2.0396    -0.1145 C.ar    
   7 C7             3.8681    -0.3579    -0.2449 C.3     
   8 N8             4.6152     0.8977    -0.0993 N.am    
   9 C9             3.7395     1.9164    -0.0334 C.2     
  10 C10            6.0736     1.0206    -0.0366 C.3     
  11 C11            6.6231     1.1973    -1.4287 C.ar    
  12 O12            1.0259     3.3855     0.0104 O.3     
  13 O13            4.0443     3.0872     0.0877 O.2     
  14 C14            6.7694     2.4678    -1.9557 C.ar    
  15 C15            7.2721     2.6355    -3.2300 C.ar    
  16 C16            7.6330     1.5218    -3.9859 C.ar    
  17 C17            7.4840     0.2443    -3.4498 C.ar    
  18 C18            6.9847     0.0886    -2.1726 C.ar    
  19 C19            8.1736     1.6958    -5.3567 C.ar    
  20 C20           -0.2022     3.9617    -0.0794 C.ar    
  21 C21           -1.0080     4.0610     1.0476 C.ar    
  22 C22           -0.6499     4.4565    -1.2951 C.ar    
  23 C23           -1.8983     5.0425    -1.3853 C.ar    
  24 C24           -2.7028     5.1369    -0.2654 C.ar    
  25 C25           -2.2583     4.6491     0.9522 C.ar    
  26 F26           -0.5732     3.5843     2.2345 F       
  27 F27           -3.0444     4.7465     2.0467 F       
  28 C28            8.3314     2.9665    -5.9150 C.ar    
  29 N29            8.8144     3.0875    -7.1355 N.ar    
  30 N30            9.1510     2.0720    -7.8435 N.ar    
  31 C31            9.0390     0.8324    -7.4035 C.ar    
  32 C32            8.5483     0.5919    -6.1326 C.ar    
  33 C33            9.4509    -0.3199    -8.2831 C.3     
  34 H34           -0.8960    -0.5406    -0.4298 H       
  35 H35            1.2465    -1.7594    -0.4700 H       
  36 H36            4.0752    -1.0172     0.5981 H       
  37 H37            4.1379    -0.8484    -1.1802 H       
  38 H38            6.3396     1.8853     0.5714 H       
  39 H39            6.4954     0.1196     0.4088 H       
  40 H40            6.4893     3.3302    -1.3689 H       
  41 H41            7.3852     3.6279    -3.6408 H       
  42 H42            7.7622    -0.6223    -4.0313 H       
  43 H43            6.8723    -0.9009    -1.7547 H       
  44 H44           -0.0228     4.3842    -2.1714 H       
  45 H45           -2.2457     5.4278    -2.3326 H       
  46 H46           -3.6778     5.5954    -0.3390 H       
  47 H47            8.0587     3.8454    -5.3496 H       
  48 H48            8.4537    -0.4146    -5.7526 H       
  49 H49           10.5031    -0.5483    -8.1136 H       
  50 H50            8.8460    -1.1944    -8.0433 H       
  51 H51            9.3015    -0.0504    -9.3287 H       
@<TRIPOS>BOND
   1    1    2 ar
   2    1    6 ar
   3    2    3 ar
   4    2   34 1
   5    3    4 ar
   6    3   35 1
   7    4    7 1
   8    4    5 ar
   9    5    6 ar
  10    5    9 1
  11    6   12 1
  12    7    8 1
  13    7   36 1
  14    7   37 1
  15    8    9 am
  16    8   10 1
  17    9   13 2
  18   10   11 1
  19   10   38 1
  20   10   39 1
  21   11   14 ar
  22   11   18 ar
  23   12   20 1
  24   14   15 ar
  25   14   40 1
  26   15   16 ar
  27   15   41 1
  28   16   17 ar
  29   16   19 1
  30   17   18 ar
  31   17   42 1
  32   18   43 1
  33   19   28 ar
  34   19   32 ar
  35   20   22 ar
  36   20   21 ar
  37   21   25 ar
  38   21   26 1
  39   22   23 ar
  40   22   44 1
  41   23   24 ar
  42   23   45 1
  43   24   25 ar
  44   24   46 1
  45   25   27 1
  46   28   29 ar
  47   28   47 1
  48   29   30 ar
  49   30   31 ar
  50   31   32 ar
  51   31   33 1
  52   32   48 1
  53   33   49 1
  54   33   50 1
  55   33   51 1

#	End of record

