#	Name: ASD09116222
#	Creating user name:	WinNT
#	Creation time:	15. 06. 2019 21:21

#	Modifying user name:	WinNT
#	Modification time:	15. 06. 2019 21:21

#	Program:	/corina/corina34_cracker 3.40 0067  02.08.2006

@<TRIPOS>MOLECULE
ASD09116222
  64   69    0    0    0
SMALL
NO_CHARGES


@<TRIPOS>ATOM
   1 N1            -0.0863     1.6288     0.0389 N.2     
   2 N2            -0.0916     0.2372     0.2264 N.pl3   
   3 C3             1.1688     2.0085     0.0254 C.2     
   4 N4             1.9508     0.9358     0.1935 N.2     
   5 C5             1.2049    -0.1414     0.3164 C.2     
   6 N6             1.6164     3.3190    -0.1379 N.pl3   
   7 N7             2.9554     3.5889    -0.1342 N.3     
   8 C8             3.3727     4.2000    -1.4026 C.3     
   9 C9             5.7010     3.3902    -1.0064 C.3     
  10 C10            5.2147     2.7447     0.2941 C.3     
  11 C11            3.7354     2.3786     0.1541 C.3     
  12 C12           -1.2121    -0.5918     0.3050 C.ar    
  13 N13           -1.1101    -1.8749    -0.0079 N.ar    
  14 N14           -2.1125    -2.6784     0.0384 N.ar    
  15 C15           -3.3158    -2.2661     0.4036 C.ar    
  16 C16           -3.5140    -0.9325     0.7723 C.ar    
  17 C17           -2.4400    -0.0694     0.7192 C.ar    
  18 C18           -4.4838    -3.1771     0.4058 C.ar    
  19 C19           -5.6614    -2.7656    -0.2205 C.ar    
  20 C20           -5.6964    -1.4380    -0.9266 C.3     
  21 C21           -5.8146    -0.2832     0.0644 C.3     
  22 C22           -4.8665    -0.4834     1.2437 C.3     
  23 C23           -4.4219    -4.4221     1.0218 C.ar    
  24 C24           -5.5361    -5.2389     1.0264 C.ar    
  25 C25           -6.7075    -4.8185     0.4231 C.ar    
  26 C26           -6.7705    -3.5836    -0.1990 C.ar    
  27 N27            1.6642    -1.4311     0.5041 N.pl3   
  28 C28            4.8412     4.6205    -1.3090 C.3     
  29 N29            7.1048     3.7969    -0.8577 N.3     
  30 C30            7.9735     2.6262    -0.6366 C.3     
  31 C31            7.5788     4.5145    -2.0602 C.3     
  32 C32            9.0723     4.1244    -2.1907 C.3     
  33 C33            9.0483     2.6389    -1.7438 C.3     
  34 H34            0.9768     4.0390    -0.2542 H       
  35 H35            3.2524     3.4781    -2.2104 H       
  36 H36            2.7562     5.0761    -1.6038 H       
  37 H37            5.6140     2.6739    -1.8234 H       
  38 H38            5.7954     1.8438     0.4925 H       
  39 H39            5.3393     3.4475     1.1179 H       
  40 H40            3.3823     1.9317     1.0834 H       
  41 H41            3.6134     1.6652    -0.6610 H       
  42 H42           -2.5457     0.9732     0.9804 H       
  43 H43           -4.7811    -1.3181    -1.5063 H       
  44 H44           -6.5509    -1.4162    -1.6030 H       
  45 H45           -5.5666     0.6502    -0.4410 H       
  46 H46           -6.8391    -0.2298     0.4327 H       
  47 H47           -5.2812    -1.2370     1.9131 H       
  48 H48           -4.7634     0.4575     1.7844 H       
  49 H49           -3.5073    -4.7491     1.4941 H       
  50 H50           -5.4922    -6.2077     1.5016 H       
  51 H51           -7.5781    -5.4575     0.4374 H       
  52 H52           -7.6887    -3.2611    -0.6675 H       
  53 H53            2.6172    -1.6039     0.5556 H       
  54 H54            1.0334    -2.1637     0.5843 H       
  55 H55            5.1550     5.0598    -2.2560 H       
  56 H56            4.9599     5.3528    -0.5104 H       
  57 H57            8.4483     2.6964     0.3420 H       
  58 H58            7.3855     1.7107    -0.7010 H       
  59 H59            7.0234     4.1891    -2.9399 H       
  60 H60            7.4784     5.5912    -1.9239 H       
  61 H61            9.4112     4.2163    -3.2226 H       
  62 H62            9.6919     4.7230    -1.5230 H       
  63 H63           10.0175     2.3412    -1.3435 H       
  64 H64            8.7568     1.9922    -2.5714 H       
@<TRIPOS>BOND
   1    1    2 1
   2    1    3 2
   3    2   12 1
   4    2    5 1
   5    3    4 1
   6    3    6 1
   7    4    5 2
   8    5   27 1
   9    6    7 1
  10    6   34 1
  11    7    8 1
  12    7   11 1
  13    8   28 1
  14    8   35 1
  15    8   36 1
  16    9   10 1
  17    9   29 1
  18    9   28 1
  19    9   37 1
  20   10   11 1
  21   10   38 1
  22   10   39 1
  23   11   40 1
  24   11   41 1
  25   12   13 ar
  26   12   17 ar
  27   13   14 ar
  28   14   15 ar
  29   15   16 ar
  30   15   18 1
  31   16   17 ar
  32   16   22 1
  33   17   42 1
  34   18   19 ar
  35   18   23 ar
  36   19   20 1
  37   19   26 ar
  38   20   21 1
  39   20   43 1
  40   20   44 1
  41   21   22 1
  42   21   45 1
  43   21   46 1
  44   22   47 1
  45   22   48 1
  46   23   24 ar
  47   23   49 1
  48   24   25 ar
  49   24   50 1
  50   25   26 ar
  51   25   51 1
  52   26   52 1
  53   27   53 1
  54   27   54 1
  55   28   55 1
  56   28   56 1
  57   29   30 1
  58   29   31 1
  59   30   33 1
  60   30   57 1
  61   30   58 1
  62   31   32 1
  63   31   59 1
  64   31   60 1
  65   32   33 1
  66   32   61 1
  67   32   62 1
  68   33   63 1
  69   33   64 1

#	End of record

