#	Name: ASD01916696
#	Creating user name:	WinNT
#	Creation time:	15. 06. 2019 20:07

#	Modifying user name:	WinNT
#	Modification time:	15. 06. 2019 20:07

#	Program:	/corina/corina34_cracker 3.40 0067  02.08.2006

@<TRIPOS>MOLECULE
ASD01916696
  37   39    0    0    0
SMALL
NO_CHARGES


@<TRIPOS>ATOM
   1 C1            -0.0168     1.3912     0.0097 C.ar    
   2 C2             0.0021    -0.0041     0.0020 C.ar    
   3 C3             1.2204    -0.6594    -0.0131 C.ar    
   4 C4             2.3820     0.1007    -0.0201 C.ar    
   5 C5             2.2905     1.4803    -0.0118 C.ar    
   6 N6             1.1180     2.0808     0.0026 N.ar    
   7 C7            -1.2697     2.0847     0.0194 C.1     
   8 C8            -2.2967     2.6533     0.0273 C.1     
   9 C9            -3.5846     3.3662     0.0372 C.3     
  10 C10           -3.3321     4.8752     0.0443 C.3     
  11 O11           -5.3504     5.9950    -1.0155 O.3     
  12 N12           -6.3669     6.5562    -0.6650 N.2     
  13 C13           -6.4343     6.5899     0.6404 C.2     
  14 N14           -5.3263     5.9759     1.1134 N.2     
  15 C15           -4.6505     5.6051     0.0544 C.2     
  16 C16           -7.5230     7.1901     1.4513 C.ar    
  17 C17           -8.6110     7.7934     0.8236 C.ar    
  18 C18           -9.6209     8.3502     1.5817 C.ar    
  19 C19           -9.5547     8.3110     2.9627 C.ar    
  20 C20           -8.4765     7.7131     3.5920 C.ar    
  21 C21           -7.4634     7.1472     2.8422 C.ar    
  22 C22           -8.6846     7.8382    -0.6810 C.3     
  23 Cl23          -8.4005     7.6683     5.3258 Cl      
  24 H24           -0.9212    -0.5644     0.0082 H       
  25 H25            1.2668    -1.7384    -0.0190 H       
  26 H26            3.3484    -0.3812    -0.0315 H       
  27 H27            3.1928     2.0739    -0.0172 H       
  28 H28           -4.1555     3.0975    -0.8515 H       
  29 H29           -4.1471     3.0878     0.9284 H       
  30 H30           -2.7611     5.1440     0.9330 H       
  31 H31           -2.7695     5.1536    -0.8469 H       
  32 H32          -10.4643     8.8179     1.0956 H       
  33 H33          -10.3469     8.7486     3.5521 H       
  34 H34           -6.6245     6.6769     3.3336 H       
  35 H35           -9.1996     6.9497    -1.0462 H       
  36 H36           -9.2314     8.7285    -0.9917 H       
  37 H37           -7.6761     7.8688    -1.0933 H       
@<TRIPOS>BOND
   1    1    2 ar
   2    1    6 ar
   3    1    7 1
   4    2    3 ar
   5    2   24 1
   6    3    4 ar
   7    3   25 1
   8    4    5 ar
   9    4   26 1
  10    5    6 ar
  11    5   27 1
  12    7    8 3
  13    8    9 1
  14    9   10 1
  15    9   28 1
  16    9   29 1
  17   10   15 1
  18   10   30 1
  19   10   31 1
  20   11   12 1
  21   11   15 1
  22   12   13 2
  23   13   14 1
  24   13   16 1
  25   14   15 2
  26   16   17 ar
  27   16   21 ar
  28   17   18 ar
  29   17   22 1
  30   18   19 ar
  31   18   32 1
  32   19   20 ar
  33   19   33 1
  34   20   21 ar
  35   20   23 1
  36   21   34 1
  37   22   35 1
  38   22   36 1
  39   22   37 1

#	End of record

