#	Name: ASD01882457
#	Creating user name:	WinNT
#	Creation time:	15. 06. 2019 19:44

#	Modifying user name:	WinNT
#	Modification time:	15. 06. 2019 19:44

#	Program:	/corina/corina34_cracker 3.40 0067  02.08.2006

@<TRIPOS>MOLECULE
ASD01882457
  51   55    0    0    0
SMALL
NO_CHARGES


@<TRIPOS>ATOM
   1 C1            -0.0311     1.3499    -0.1951 C.2     
   2 C2             0.0361    -0.0509    -0.1058 C.2     
   3 C3             1.2521    -0.6493     0.0838 C.2     
   4 C4             2.4129     0.1481     0.1859 C.2     
   5 C5             2.3253     1.4897     0.0974 C.2     
   6 N6             1.1177     2.0961    -0.0916 N.pl3   
   7 N7            -0.5677     3.4052    -0.3845 N.2     
   8 N8            -1.0272     2.2035    -0.3767 N.2     
   9 C9             0.7283     3.3974    -0.2163 C.2     
  10 C10           -1.2150    -0.8835    -0.2169 C.3     
  11 F11           -1.7209    -1.1380     1.0624 F       
  12 F12           -2.1712    -0.1906    -0.9671 F       
  13 F13           -0.9145    -2.0948    -0.8490 F       
  14 N14            1.3440    -2.0348     0.1759 N.pl3   
  15 C15            0.7390    -2.7517     1.3068 C.3     
  16 C16            1.8076    -3.6339     1.9599 C.3     
  17 C17            2.4299    -4.5445     0.8989 C.3     
  18 C18            3.1014    -3.6902    -0.1788 C.3     
  19 C19            2.0425    -2.8092    -0.8591 C.3     
  20 C20            3.4579    -5.4377     1.5442 C.ar    
  21 C21            3.3029    -6.8126     1.4858 C.ar    
  22 C22            4.2555    -7.6260     2.0835 C.ar    
  23 C23            5.3323    -7.0235     2.7199 C.ar    
  24 C24            5.4185    -5.6419     2.7365 C.ar    
  25 N25            4.4968    -4.9011     2.1530 N.ar    
  26 F26            6.2834    -7.7757     3.3156 F       
  27 F27            2.2380    -7.3550     0.8557 F       
  28 C28            1.6284     4.6052    -0.1706 C.3     
  29 C29            2.1158     4.9318    -1.5836 C.3     
  30 C30            2.9513     6.2003    -1.7672 C.3     
  31 C31            3.6178     4.8259    -1.8550 C.3     
  32 H32            3.3749    -0.3192     0.3359 H       
  33 H33            3.2191     2.0906     0.1771 H       
  34 H34            0.3627    -2.0336     2.0354 H       
  35 H35           -0.0802    -3.3749     0.9482 H       
  36 H36            2.5818    -3.0037     2.3978 H       
  37 H37            1.3499    -4.2432     2.7391 H       
  38 H38            1.6513    -5.1568     0.4440 H       
  39 H39            3.8633    -3.0595     0.2792 H       
  40 H40            3.5644    -4.3396    -0.9218 H       
  41 H41            1.3275    -3.4370    -1.3907 H       
  42 H42            2.5266    -2.1290    -1.5600 H       
  43 H43            4.1612    -8.7015     2.0546 H       
  44 H44            6.2530    -5.1653     3.2293 H       
  45 H45            1.0754     5.4555     0.2286 H       
  46 H46            2.4851     4.3959     0.4699 H       
  47 H47            1.4375     4.6548    -2.3906 H       
  48 H48            2.8230     6.7576    -2.6951 H       
  49 H49            3.1538     6.8022    -0.8813 H       
  50 H50            4.2587     4.5236    -1.0268 H       
  51 H51            3.9279     4.4790    -2.8407 H       
@<TRIPOS>BOND
   1    1    2 1
   2    1    6 1
   3    1    8 2
   4    2    3 2
   5    2   10 1
   6    3    4 1
   7    3   14 1
   8    4    5 2
   9    4   32 1
  10    5    6 1
  11    5   33 1
  12    6    9 1
  13    7    8 1
  14    7    9 2
  15    9   28 1
  16   10   11 1
  17   10   12 1
  18   10   13 1
  19   14   15 1
  20   14   19 1
  21   15   16 1
  22   15   34 1
  23   15   35 1
  24   16   17 1
  25   16   36 1
  26   16   37 1
  27   17   18 1
  28   17   20 1
  29   17   38 1
  30   18   19 1
  31   18   39 1
  32   18   40 1
  33   19   41 1
  34   19   42 1
  35   20   21 ar
  36   20   25 ar
  37   21   22 ar
  38   21   27 1
  39   22   23 ar
  40   22   43 1
  41   23   24 ar
  42   23   26 1
  43   24   25 ar
  44   24   44 1
  45   28   29 1
  46   28   45 1
  47   28   46 1
  48   29   30 1
  49   29   31 1
  50   29   47 1
  51   30   31 1
  52   30   48 1
  53   30   49 1
  54   31   50 1
  55   31   51 1

#	End of record

