#	Name: ASD03080136
#	Creating user name:	WinNT
#	Creation time:	15. 06. 2019 20:26

#	Modifying user name:	WinNT
#	Modification time:	15. 06. 2019 20:26

#	Program:	/corina/corina34_cracker 3.40 0067  02.08.2006

@<TRIPOS>MOLECULE
ASD03080136
  39   41    0    0    0
SMALL
NO_CHARGES


@<TRIPOS>ATOM
   1 C1            -0.0166     1.3707     0.0096 C.ar    
   2 C2             0.0021    -0.0041     0.0020 C.ar    
   3 C3             1.1842     2.0905     0.0020 C.ar    
   4 C4             2.4062     1.4073    -0.0134 C.ar    
   5 C5             2.3909    -0.0086    -0.0200 C.ar    
   6 C6             1.2128    -0.6861    -0.0128 C.ar    
   7 S7             1.4791     3.8255     0.0080 S.3     
   8 C8             3.2167     3.5805    -0.0102 C.2     
   9 C9             3.5094     2.2761    -0.0197 C.2     
  10 N10            3.8124     5.9478    -0.0043 N.am    
  11 C11            4.2134     4.6611    -0.0148 C.2     
  12 O12            5.4001     4.3939    -0.0281 O.2     
  13 Cl13          -1.5328     2.2161     0.0214 Cl      
  14 C14            2.9895     8.7121    -0.2541 C.3     
  15 C15            3.4651     8.9644    -1.6877 C.3     
  16 N16            4.9115     8.7213    -1.7711 N.3     
  17 C17            5.2314     7.3237    -1.4490 C.3     
  18 C18            4.8057     7.0246    -0.0089 C.3     
  19 C19            4.1924     8.2921     0.5998 C.3     
  20 C20            5.2393     9.4123     0.5549 C.3     
  21 C21            5.6531     9.6445    -0.9010 C.3     
  22 H22           -0.9266    -0.5553     0.0080 H       
  23 H23            3.3228    -0.5544    -0.0323 H       
  24 H24            1.2176    -1.7661    -0.0177 H       
  25 H25            4.5269     1.9145    -0.0311 H       
  26 H26            2.8661     6.1608     0.0063 H       
  27 H27            2.5541     9.6250     0.1523 H       
  28 H28            2.2440     7.9169    -0.2512 H       
  29 H29            2.9434     8.2910    -2.3678 H       
  30 H30            3.2534     9.9972    -1.9647 H       
  31 H31            4.6975     6.6620    -2.1310 H       
  32 H32            6.3047     7.1633    -1.5518 H       
  33 H33            5.6760     6.7237     0.5742 H       
  34 H34            3.8756     8.1001     1.6249 H       
  35 H35            4.8121    10.3280     0.9636 H       
  36 H36            6.1113     9.1209     1.1404 H       
  37 H37            6.7229     9.4650    -1.0081 H       
  38 H38            5.4263    10.6724    -1.1841 H       
  39 Cl39          11.7229    15.6724     6.6249 Cl      
@<TRIPOS>BOND
   1    1    2 ar
   2    1    3 ar
   3    1   13 1
   4    2    6 ar
   5    2   22 1
   6    3    4 ar
   7    3    7 1
   8    4    5 ar
   9    4    9 1
  10    5    6 ar
  11    5   23 1
  12    6   24 1
  13    7    8 1
  14    8    9 2
  15    8   11 1
  16    9   25 1
  17   10   11 am
  18   10   18 1
  19   10   26 1
  20   11   12 2
  21   14   15 1
  22   14   19 1
  23   14   27 1
  24   14   28 1
  25   15   16 1
  26   15   29 1
  27   15   30 1
  28   16   17 1
  29   16   21 1
  30   17   18 1
  31   17   31 1
  32   17   32 1
  33   18   19 1
  34   18   33 1
  35   19   20 1
  36   19   34 1
  37   20   21 1
  38   20   35 1
  39   20   36 1
  40   21   37 1
  41   21   38 1

#	End of record

