#	Name: ASD01881852
#	Creating user name:	WinNT
#	Creation time:	15. 06. 2019 19:43

#	Modifying user name:	WinNT
#	Modification time:	15. 06. 2019 19:43

#	Program:	/corina/corina34_cracker 3.40 0067  02.08.2006

@<TRIPOS>MOLECULE
ASD01881852
  58   62    0    0    0
SMALL
NO_CHARGES


@<TRIPOS>ATOM
   1 C1             2.6924     0.2338     2.5122 C.ar    
   2 C2             2.3511    -1.0689     2.1997 C.ar    
   3 C3             4.0134     0.5640     2.7505 C.ar    
   4 C4             4.9931    -0.4084     2.6763 C.ar    
   5 C5             4.6518    -1.7111     2.3643 C.ar    
   6 C6             3.3309    -2.0412     2.1256 C.ar    
   7 C7             2.9587    -3.4615     1.7859 C.3     
   8 C8             1.9827    -3.9978     2.8350 C.3     
   9 C9             1.6048    -5.4397     2.4901 C.3     
  10 C10            0.9430    -5.4777     1.1112 C.3     
  11 C11            1.9191    -4.9414     0.0621 C.3     
  12 C12            2.2969    -3.4994     0.4069 C.3     
  13 N13            0.5802    -6.8621     0.7800 N.3     
  14 C14           -0.5302    -6.8999    -0.1809 C.3     
  15 C15           -0.8735    -8.3331    -0.4958 C.2     
  16 C16           -0.1658    -9.0251    -1.4936 C.2     
  17 C17           -0.4692   -10.3087    -1.7796 C.2     
  18 N18           -1.4654   -10.9514    -1.1053 N.pl3   
  19 C19           -2.1744   -10.3013    -0.1251 C.2     
  20 C20           -1.8657    -8.9636     0.1884 C.2     
  21 C21           -2.6293    -8.2374     1.2658 C.3     
  22 C22           -1.9847   -12.2074    -1.1697 C.2     
  23 N23           -2.9400   -12.2843    -0.2795 N.2     
  24 N24           -3.0608   -11.1647     0.3433 N.2     
  25 F25           -3.5722    -7.3879     0.6772 F       
  26 F26           -3.2838    -9.1672     2.0809 F       
  27 F27           -1.7407    -7.4831     2.0394 F       
  28 C28           -1.5408   -13.3087    -2.0977 C.3     
  29 C29           -0.4358   -14.1267    -1.4264 C.3     
  30 C30            0.0701   -15.3688    -2.1627 C.3     
  31 C31            0.9469   -14.1176    -2.0813 C.3     
  32 H32            1.9275     0.9943     2.5657 H       
  33 H33            1.3190    -1.3269     2.0139 H       
  34 H34            4.2801     1.5818     2.9943 H       
  35 H35            6.0253    -0.1502     2.8618 H       
  36 H36            5.4174    -2.4706     2.3057 H       
  37 H37            3.8564    -4.0797     1.7752 H       
  38 H38            2.4542    -3.9708     3.8173 H       
  39 H39            1.0850    -3.3796     2.8457 H       
  40 H40            2.5025    -6.0579     2.4794 H       
  41 H41            0.9095    -5.8218     3.2375 H       
  42 H42            0.0453    -4.8595     1.1219 H       
  43 H43            2.8168    -5.5595     0.0513 H       
  44 H44            1.4476    -4.9684    -0.9203 H       
  45 H45            1.3992    -2.8812     0.4177 H       
  46 H46            2.9923    -3.1173    -0.3404 H       
  47 H47            1.3782    -7.3713     0.4307 H       
  48 H48           -1.4002    -6.4040     0.2496 H       
  49 H49           -0.2359    -6.3872    -1.0966 H       
  50 H50            0.6249    -8.5268    -2.0347 H       
  51 H51            0.0808   -10.8307    -2.5485 H       
  52 H52           -2.3873   -13.9574    -2.3228 H       
  53 H53           -1.1604   -12.8737    -3.0219 H       
  54 H54           -0.4772   -14.1689    -0.3380 H       
  55 H55            0.3619   -16.2280    -1.5587 H       
  56 H56           -0.3843   -15.6032    -3.1253 H       
  57 H57            1.0694   -13.5289    -2.9904 H       
  58 H58            1.8155   -14.1537    -1.4238 H       
@<TRIPOS>BOND
   1    1    2 ar
   2    1    3 ar
   3    1   32 1
   4    2    6 ar
   5    2   33 1
   6    3    4 ar
   7    3   34 1
   8    4    5 ar
   9    4   35 1
  10    5    6 ar
  11    5   36 1
  12    6    7 1
  13    7    8 1
  14    7   12 1
  15    7   37 1
  16    8    9 1
  17    8   38 1
  18    8   39 1
  19    9   10 1
  20    9   40 1
  21    9   41 1
  22   10   11 1
  23   10   13 1
  24   10   42 1
  25   11   12 1
  26   11   43 1
  27   11   44 1
  28   12   45 1
  29   12   46 1
  30   13   14 1
  31   13   47 1
  32   14   15 1
  33   14   48 1
  34   14   49 1
  35   15   16 1
  36   15   20 2
  37   16   17 2
  38   16   50 1
  39   17   18 1
  40   17   51 1
  41   18   22 1
  42   18   19 1
  43   19   20 1
  44   19   24 2
  45   20   21 1
  46   21   25 1
  47   21   26 1
  48   21   27 1
  49   22   23 2
  50   22   28 1
  51   23   24 1
  52   28   29 1
  53   28   52 1
  54   28   53 1
  55   29   30 1
  56   29   31 1
  57   29   54 1
  58   30   31 1
  59   30   55 1
  60   30   56 1
  61   31   57 1
  62   31   58 1

#	End of record

