#	Name: ASD02198646
#	Creating user name:	WinNT
#	Creation time:	15. 06. 2019 20:19

#	Modifying user name:	WinNT
#	Modification time:	15. 06. 2019 20:19

#	Program:	/corina/corina34_cracker 3.40 0067  02.08.2006

@<TRIPOS>MOLECULE
ASD02198646
  53   57    0    0    0
SMALL
NO_CHARGES


@<TRIPOS>ATOM
   1 C1             0.0066     1.5058     0.1350 C.2     
   2 C2             0.0730     0.1658    -0.0928 C.2     
   3 N3            -1.0541    -0.5636    -0.2632 N.pl3   
   4 N4            -2.2317    -0.0593    -0.2229 N.2     
   5 C5            -2.4385     1.2236    -0.0100 C.2     
   6 C6            -1.2794     2.1037     0.1932 C.2     
   7 C7            -0.9274    -1.9374    -0.4954 C.ar    
   8 C8            -1.5127    -2.5102    -1.6179 C.ar    
   9 C9            -1.3839    -3.8751    -1.8437 C.ar    
  10 C10           -0.6716    -4.6610    -0.9479 C.ar    
  11 C11           -0.0906    -4.0876     0.1677 C.ar    
  12 C12           -0.2112    -2.7303     0.3933 C.ar    
  13 C13           -3.8114     1.7673     0.0294 C.2     
  14 N14           -4.3733     2.4804     1.0508 N.pl3   
  15 N15           -5.6845     2.8001     0.6771 N.2     
  16 C16           -5.9148     2.3075    -0.5138 C.2     
  17 C17           -4.7644     1.6562    -0.9591 C.2     
  18 C18           -3.7497     2.8285     2.2558 C.ar    
  19 C19           -3.9185     4.1016     2.7841 C.ar    
  20 C20           -3.3023     4.4417     3.9724 C.ar    
  21 C21           -2.5175     3.5162     4.6357 C.ar    
  22 C22           -2.3472     2.2478     4.1119 C.ar    
  23 C23           -2.9661     1.8994     2.9274 C.ar    
  24 O24           -1.4166     3.3017     0.3949 O.2     
  25 O25            1.1344     2.2463     0.3068 O.3     
  26 C26            2.3823     1.5534     0.2368 C.3     
  27 F27           -2.2055    -1.7423    -2.4871 F       
  28 N28           -1.9723    -4.4575    -2.9734 N.am    
  29 C29           -1.3598    -4.5947    -4.1620 C.2     
  30 O30           -0.2299    -4.2283    -4.4077 O.2     
  31 C31           -3.3347    -5.0021    -3.0096 C.3     
  32 C32           -3.3860    -5.9007    -4.2652 C.3     
  33 C33           -2.2845    -5.2732    -5.1486 C.3     
  34 H34            1.0359    -0.3210    -0.1386 H       
  35 H35           -0.5714    -5.7220    -1.1228 H       
  36 H36            0.4628    -4.7019     0.8625 H       
  37 H37            0.2444    -2.2861     1.2660 H       
  38 H38           -6.8411     2.3942    -1.0623 H       
  39 H39           -4.6444     1.1508    -1.9060 H       
  40 H40           -4.5306     4.8250     2.2662 H       
  41 H41           -3.4331     5.4317     4.3839 H       
  42 H42           -2.0364     3.7848     5.5646 H       
  43 H43           -1.7334     1.5274     4.6321 H       
  44 H44           -2.8329     0.9085     2.5190 H       
  45 H45            3.1988     2.2591     0.3903 H       
  46 H46            2.4155     0.7857     1.0098 H       
  47 H47            2.4845     1.0871    -0.7431 H       
  48 H48           -3.5286    -5.5932    -2.1146 H       
  49 H49           -4.0617    -4.1943    -3.0939 H       
  50 H50           -3.1418    -6.9333    -4.0161 H       
  51 H51           -4.3602    -5.8379    -4.7502 H       
  52 H52           -2.7148    -4.5424    -5.8333 H       
  53 H53           -1.7514    -6.0471    -5.7008 H       
@<TRIPOS>BOND
   1    1    2 2
   2    1   25 1
   3    1    6 1
   4    2    3 1
   5    2   34 1
   6    3    4 1
   7    3    7 1
   8    4    5 2
   9    5    6 1
  10    5   13 1
  11    6   24 2
  12    7    8 ar
  13    7   12 ar
  14    8    9 ar
  15    8   27 1
  16    9   10 ar
  17    9   28 1
  18   10   11 ar
  19   10   35 1
  20   11   12 ar
  21   11   36 1
  22   12   37 1
  23   13   14 1
  24   13   17 2
  25   14   15 1
  26   14   18 1
  27   15   16 2
  28   16   17 1
  29   16   38 1
  30   17   39 1
  31   18   19 ar
  32   18   23 ar
  33   19   20 ar
  34   19   40 1
  35   20   21 ar
  36   20   41 1
  37   21   22 ar
  38   21   42 1
  39   22   23 ar
  40   22   43 1
  41   23   44 1
  42   25   26 1
  43   26   45 1
  44   26   46 1
  45   26   47 1
  46   28   31 1
  47   28   29 am
  48   29   30 2
  49   29   33 1
  50   31   32 1
  51   31   48 1
  52   31   49 1
  53   32   33 1
  54   32   50 1
  55   32   51 1
  56   33   52 1
  57   33   53 1

#	End of record

