#	Name: ASD05430435
#	Creating user name:	WinNT
#	Creation time:	15. 06. 2019 21:00

#	Modifying user name:	WinNT
#	Modification time:	15. 06. 2019 21:00

#	Program:	/corina/corina34_cracker 3.40 0067  02.08.2006

@<TRIPOS>MOLECULE
ASD05430435
  60   64    0    0    0
SMALL
NO_CHARGES


@<TRIPOS>ATOM
   1 C1            -0.0168     1.3905     0.0097 C.ar    
   2 C2             0.0021    -0.0041     0.0020 C.ar    
   3 C3            -1.1894    -0.7183     0.0096 C.ar    
   4 C4            -2.3954    -0.0525     0.0246 C.ar    
   5 C5            -2.4222     1.3461     0.0324 C.ar    
   6 C6            -1.2227     2.0650     0.0306 C.ar    
   7 C7            -4.8634     1.3652     0.0557 C.2     
   8 C8            -3.7095     2.0591     0.0485 C.2     
   9 O9             1.1512     2.0862     0.0023 O.3     
  10 C10            1.6007    -1.7066     0.8216 C.2     
  11 N11            1.2256    -0.6862    -0.0138 N.pl3   
  12 C12            2.8463    -2.0687     0.4600 C.2     
  13 N13            3.2261    -1.2943    -0.5671 N.2     
  14 C14            2.2642    -0.4622    -0.8603 C.2     
  15 C15            3.6709    -3.1562     1.0991 C.3     
  16 C16           -7.6968     0.2076    -0.3318 C.2     
  17 N17           -7.3713     1.4440     0.0800 N.am    
  18 C18           -8.3591     2.4288     0.5820 C.3     
  19 C19           -9.6336     2.2381    -0.2479 C.3     
  20 C20          -10.0786     0.7782    -0.1122 C.3     
  21 N21           -8.9930    -0.1313    -0.4694 N.am    
  22 C22           -8.6136     2.2918     2.0611 C.ar    
  23 C23           -7.6164     1.8168     2.8924 C.ar    
  24 C24           -9.8422     2.6467     2.5863 C.ar    
  25 C25          -10.0764     2.5223     3.9426 C.ar    
  26 C26           -9.0802     2.0417     4.7754 C.ar    
  27 C27           -7.8485     1.6911     4.2489 C.ar    
  28 F28           -9.3081     1.9197     6.1015 F       
  29 O29           -6.8247    -0.6008    -0.5842 O.2     
  30 C30            1.0570     3.5121     0.0108 C.3     
  31 C31           -7.6720     3.7586     0.2083 C.3     
  32 N32           -6.2544     3.3749     0.0802 N.2     
  33 C33           -6.1469     2.0762     0.0718 C.2     
  34 C34           -9.3254    -1.4575    -0.9953 C.3     
  35 H35           -1.1703    -1.7981     0.0032 H       
  36 H36           -3.3202    -0.6104     0.0301 H       
  37 H37           -1.2388     3.1449     0.0366 H       
  38 H38           -4.8443     0.2854     0.0498 H       
  39 H39           -3.7286     3.1389     0.0545 H       
  40 H40            1.0120    -2.1346     1.6195 H       
  41 H41            2.2895     0.2798    -1.6446 H       
  42 H42            3.4793    -4.1024     0.5930 H       
  43 H43            4.7287    -2.9070     1.0150 H       
  44 H44            3.4013    -3.2458     2.1514 H       
  45 H45          -10.4173     2.8976     0.1248 H       
  46 H46           -9.4285     2.4643    -1.2942 H       
  47 H47          -10.3800     0.5895     0.9182 H       
  48 H48          -10.9277     0.5994    -0.7718 H       
  49 H49           -6.6558     1.5434     2.4815 H       
  50 H50          -10.6191     3.0216     1.9365 H       
  51 H51          -11.0360     2.8003     4.3528 H       
  52 H52           -7.0708     1.3158     4.8976 H       
  53 H53            2.0585     3.9423     0.0036 H       
  54 H54            0.5119     3.8455    -0.8722 H       
  55 H55            0.5289     3.8359     0.9076 H       
  56 H56           -8.0557     4.1379    -0.7388 H       
  57 H57           -7.8018     4.4956     1.0008 H       
  58 H58           -8.4070    -2.0042    -1.2093 H       
  59 H59           -9.9105    -2.0052    -0.2565 H       
  60 H60           -9.9061    -1.3500    -1.9115 H       
@<TRIPOS>BOND
   1    1    2 ar
   2    1    9 1
   3    1    6 ar
   4    2    3 ar
   5    2   11 1
   6    3    4 ar
   7    3   35 1
   8    4    5 ar
   9    4   36 1
  10    5    6 ar
  11    5    8 1
  12    6   37 1
  13    7    8 2
  14    7   33 1
  15    7   38 1
  16    8   39 1
  17    9   30 1
  18   10   11 1
  19   10   12 2
  20   10   40 1
  21   11   14 1
  22   12   13 1
  23   12   15 1
  24   13   14 2
  25   14   41 1
  26   15   42 1
  27   15   43 1
  28   15   44 1
  29   16   17 am
  30   16   21 am
  31   16   29 2
  32   17   18 1
  33   17   33 1
  34   18   19 1
  35   18   22 1
  36   18   31 1
  37   19   20 1
  38   19   45 1
  39   19   46 1
  40   20   21 1
  41   20   47 1
  42   20   48 1
  43   21   34 1
  44   22   23 ar
  45   22   24 ar
  46   23   27 ar
  47   23   49 1
  48   24   25 ar
  49   24   50 1
  50   25   26 ar
  51   25   51 1
  52   26   27 ar
  53   26   28 1
  54   27   52 1
  55   30   53 1
  56   30   54 1
  57   30   55 1
  58   31   32 1
  59   31   56 1
  60   31   57 1
  61   32   33 2
  62   34   58 1
  63   34   59 1
  64   34   60 1

#	End of record

