#	Name: ASD01141111
#	Creating user name:	WinNT
#	Creation time:	15. 06. 2019 19:01

#	Modifying user name:	WinNT
#	Modification time:	15. 06. 2019 19:01

#	Program:	/corina/corina34_cracker 3.40 0067  02.08.2006

@<TRIPOS>MOLECULE
ASD01141111
  54   58    0    0    0
SMALL
NO_CHARGES


@<TRIPOS>ATOM
   1 C1             0.0662     1.3466     0.1631 C.3     
   2 C2             0.3037    -0.1687     0.2777 C.3     
   3 C3             1.4220     2.0038    -0.0008 C.3     
   4 C4             1.2368    -0.5004     1.4372 C.3     
   5 C5             2.2212     1.7510     1.3078 C.3     
   6 C6             1.4472     3.5156    -0.1374 C.3     
   7 C7             2.1597     1.3743    -1.1841 C.3     
   8 C8             2.5608     0.2729     1.3377 C.3     
   9 C9             1.5348    -2.0006     1.4541 C.3     
  10 H10            0.7440    -0.2382     2.3734 H       
  11 H11            1.6232     2.0205     2.1784 H       
  12 C12            3.4088     2.7057     1.1385 C.3     
  13 C13            2.7485     3.9837     0.5486 C.3     
  14 C14            3.4231    -0.0525     2.5581 C.3     
  15 H15            3.0802    -0.0036     0.4202 H       
  16 C16            2.4051    -2.3332     2.6678 C.3     
  17 C17            0.2219    -2.7814     1.5377 C.3     
  18 C18            3.7188    -1.5535     2.5857 C.3     
  19 H19            4.3599     0.5016     2.4994 H       
  20 C20            2.7035    -3.8338     2.6853 C.3     
  21 H21            1.8763    -2.0574     3.5803 H       
  22 C22            0.5209    -4.2818     1.5548 C.3     
  23 C23            1.3902    -4.6142     2.7692 C.3     
  24 O24            0.6965    -4.2522     3.9650 O.3     
  25 H25           -0.1470    -4.7096     4.0841 H       
  26 H26           -0.6521    -0.6684     0.4351 H       
  27 C27            2.2774    -2.3874     0.1735 C.3     
  28 O28            0.9419     4.1922    -1.2819 O.3     
  29 C29            0.1849     4.3664    -0.0807 C.3     
  30 H30           -0.5567     1.5597    -0.7057 H       
  31 H31           -0.4180     1.7155     1.0672 H       
  32 H32            0.7456    -0.5314    -0.6504 H       
  33 H33            1.6243     1.5982    -2.1068 H       
  34 H34            3.1689     1.7821    -1.2416 H       
  35 H35            2.2116     0.2942    -1.0470 H       
  36 H36            3.8713     2.9204     2.1019 H       
  37 H37            4.1391     2.2929     0.4426 H       
  38 H38            3.4124     4.4457    -0.1820 H       
  39 H39            2.5188     4.6896     1.3467 H       
  40 H40            2.8897     0.2298     3.4658 H       
  41 H41           -0.3072    -2.5059     2.4501 H       
  42 H42           -0.3976    -2.5442     0.6728 H       
  43 H43            4.2520    -1.8353     1.6778 H       
  44 H44            4.3340    -1.7864     3.4548 H       
  45 H45            3.2324    -4.1097     1.7731 H       
  46 H46            3.3229    -4.0710     3.5503 H       
  47 H47           -0.4145    -4.8381     1.6143 H       
  48 H48            1.0503    -4.5572     0.6426 H       
  49 H49            1.6030    -5.6832     2.7821 H       
  50 H50            3.2132    -1.8316     0.1142 H       
  51 H51            2.4898    -3.4564     0.1855 H       
  52 H52            1.6581    -2.1497    -0.6914 H       
  53 H53           -0.7724     3.8508    -0.0040 H       
  54 H54            0.2447     5.3315     0.4223 H       
@<TRIPOS>BOND
   1    1    2 1
   2    1    3 1
   3    1   30 1
   4    1   31 1
   5    2    4 1
   6    2   26 1
   7    2   32 1
   8    3    5 1
   9    3    7 1
  10    3    6 1
  11    4    8 1
  12    4   10 1
  13    4    9 1
  14    5    8 1
  15    5   11 1
  16    5   12 1
  17    6   13 1
  18    6   28 1
  19    6   29 1
  20    7   33 1
  21    7   34 1
  22    7   35 1
  23    8   14 1
  24    8   15 1
  25    9   17 1
  26    9   27 1
  27    9   16 1
  28   12   13 1
  29   12   36 1
  30   12   37 1
  31   13   38 1
  32   13   39 1
  33   14   18 1
  34   14   19 1
  35   14   40 1
  36   16   20 1
  37   16   21 1
  38   16   18 1
  39   17   22 1
  40   17   41 1
  41   17   42 1
  42   18   43 1
  43   18   44 1
  44   20   23 1
  45   20   45 1
  46   20   46 1
  47   22   23 1
  48   22   47 1
  49   22   48 1
  50   23   24 1
  51   23   49 1
  52   24   25 1
  53   27   50 1
  54   27   51 1
  55   27   52 1
  56   28   29 1
  57   29   53 1
  58   29   54 1

#	End of record

