#	Name: ASD01813012
#	Creating user name:	WinNT
#	Creation time:	15. 06. 2019 19:29

#	Modifying user name:	WinNT
#	Modification time:	15. 06. 2019 19:29

#	Program:	/corina/corina34_cracker 3.40 0067  02.08.2006

@<TRIPOS>MOLECULE
ASD01813012
  43   46    0    0    0
SMALL
NO_CHARGES


@<TRIPOS>ATOM
   1 C1            -0.0389     1.3765    -0.2111 C.2     
   2 C2            -0.0177    -0.0024    -0.2099 C.2     
   3 N3            -1.1549    -0.6981    -0.0021 N.pl3   
   4 C4            -2.3481    -0.1287     0.2195 C.2     
   5 C5            -2.5048     1.2407     0.2494 C.2     
   6 C6            -1.3124     2.0765     0.0226 C.2     
   7 O7            -1.3765     3.2939     0.0354 O.2     
   8 C8            -1.0815    -2.1611    -0.0201 C.3     
   9 C9            -0.9274    -2.6738     1.3886 C.ar    
  10 C10           -2.0487    -2.9697     2.1417 C.ar    
  11 C11           -1.9106    -3.4392     3.4333 C.ar    
  12 C12           -0.6444    -3.6146     3.9750 C.ar    
  13 C13            0.4796    -3.3171     3.2162 C.ar    
  14 C14            0.3352    -2.8527     1.9234 C.ar    
  15 C15            1.1855     2.1480    -0.4474 C.2     
  16 C16            2.5041     1.4022    -0.4297 C.3     
  17 C17            2.2886     0.0812    -1.1807 C.3     
  18 C18            1.2634    -0.7642    -0.4305 C.3     
  19 O19            1.1440     3.3434    -0.6508 O.2     
  20 N20           -0.5010    -4.0906     5.2859 N.pl3   
  21 N21           -1.5328    -4.4339     6.1747 N.2     
  22 C22           -0.9617    -4.8289     7.2825 C.2     
  23 N23            0.3611    -4.7532     7.1396 N.2     
  24 C24            0.6541    -4.3154     5.9419 C.2     
  25 C25           -3.8221     1.8486     0.4951 C.2     
  26 O26           -4.7937     1.1411     0.6757 O.2     
  27 O27           -3.9512     3.1900     0.5199 O.3     
  28 H28           -3.2101    -0.7598     0.3785 H       
  29 H29           -1.9951    -2.5654    -0.4560 H       
  30 H30           -0.2247    -2.4746    -0.6166 H       
  31 H31           -3.0334    -2.8331     1.7198 H       
  32 H32           -2.7867    -3.6695     4.0213 H       
  33 H33            1.4658    -3.4522     3.6351 H       
  34 H34            1.2091    -2.6212     1.3327 H       
  35 H35            3.2714     1.9928    -0.9302 H       
  36 H36            2.8023     1.1999     0.5990 H       
  37 H37            1.9227     0.2897    -2.1860 H       
  38 H38            3.2323    -0.4608    -1.2417 H       
  39 H39            1.6775    -1.0537     0.5353 H       
  40 H40            1.0492    -1.6625    -1.0096 H       
  41 H41           -1.4785    -5.1624     8.1703 H       
  42 H42            1.6478    -4.1558     5.5500 H       
  43 H43           -4.8362     3.5428     0.6849 H       
@<TRIPOS>BOND
   1    1    2 2
   2    1   15 1
   3    1    6 1
   4    2    3 1
   5    2   18 1
   6    3    4 1
   7    3    8 1
   8    4    5 2
   9    4   28 1
  10    5    6 1
  11    5   25 1
  12    6    7 2
  13    8    9 1
  14    8   29 1
  15    8   30 1
  16    9   10 ar
  17    9   14 ar
  18   10   11 ar
  19   10   31 1
  20   11   12 ar
  21   11   32 1
  22   12   13 ar
  23   12   20 1
  24   13   14 ar
  25   13   33 1
  26   14   34 1
  27   15   16 1
  28   15   19 2
  29   16   17 1
  30   16   35 1
  31   16   36 1
  32   17   18 1
  33   17   37 1
  34   17   38 1
  35   18   39 1
  36   18   40 1
  37   20   21 1
  38   20   24 1
  39   21   22 2
  40   22   23 1
  41   22   41 1
  42   23   24 2
  43   24   42 1
  44   25   26 2
  45   25   27 1
  46   27   43 1

#	End of record

