#	Name: ASD07931843
#	Creating user name:	WinNT
#	Creation time:	15. 06. 2019 21:13

#	Modifying user name:	WinNT
#	Modification time:	15. 06. 2019 21:13

#	Program:	/corina/corina34_cracker 3.40 0067  02.08.2006

@<TRIPOS>MOLECULE
ASD07931843
  69   72    0    0    0
SMALL
NO_CHARGES


@<TRIPOS>ATOM
   1 O1             0.5037     2.1517    -2.4612 O.3     
   2 C2             0.6685     0.9567    -3.2427 C.3     
   3 C3             2.0499     1.0396    -3.9207 C.3     
   4 C4             2.6505     2.3669    -3.3971 C.3     
   5 C5             1.8264     2.6096    -2.1070 C.3     
   6 O6             0.6123    -0.1911    -2.3933 O.3     
   7 C7            -0.4122     0.8761    -4.2899 C.ar    
   8 C8            -0.9751     2.0342    -4.7927 C.ar    
   9 C9            -1.9665     1.9603    -5.7532 C.ar    
  10 C10           -2.3948     0.7283    -6.2112 C.ar    
  11 C11           -1.8313    -0.4298    -5.7089 C.ar    
  12 C12           -0.8368    -0.3557    -4.7516 C.ar    
  13 C13           -3.4763     0.6477    -7.2575 C.3     
  14 F14           -2.8954     0.6573    -8.5302 F       
  15 F15           -4.2040    -0.5347    -7.0859 F       
  16 F16           -4.3334     1.7458    -7.1278 F       
  17 C17            4.1368     2.2032    -3.0729 C.3     
  18 C18            1.8047     4.0980    -1.7536 C.3     
  19 O19            1.0500     4.2922    -0.5558 O.3     
  20 Si20           1.0448     5.8318    -0.0173 Si      
  21 C21            0.5033     6.9714    -1.3948 C.ar    
  22 C22           -0.6106     7.7734    -1.2308 C.ar    
  23 C23           -1.0112     8.6167    -2.2502 C.ar    
  24 C24           -0.2978     8.6583    -3.4335 C.ar    
  25 C25            0.8166     7.8570    -3.5972 C.ar    
  26 C26            1.2199     7.0169    -2.5761 C.ar    
  27 C27           -0.1395     5.9849     1.4192 C.ar    
  28 C28           -1.4925     6.1447     1.1855 C.ar    
  29 C29           -2.3688     6.2581     2.2486 C.ar    
  30 C30           -1.8922     6.2112     3.5453 C.ar    
  31 C31           -0.5392     6.0505     3.7790 C.ar    
  32 C32            0.3366     5.9328     2.7160 C.ar    
  33 C33            2.7598     6.3010     0.5389 C.3     
  34 C34            3.6215     6.6248    -0.6831 C.3     
  35 C35            2.6828     7.5288     1.4486 C.3     
  36 C36            3.3834     5.1347     1.3081 C.3     
  37 H37            2.6722     0.1956    -3.6232 H       
  38 H38            1.9415     1.0714    -5.0049 H       
  39 H39            2.4967     3.1731    -4.1144 H       
  40 H40            2.2268     2.0234    -1.2799 H       
  41 H41           -0.2288    -0.2949    -1.9277 H       
  42 H42           -0.6405     2.9967    -4.4350 H       
  43 H43           -2.4068     2.8651    -6.1456 H       
  44 H44           -2.1661    -1.3923    -6.0665 H       
  45 H45           -0.3940    -1.2604    -4.3619 H       
  46 H46            4.6785     1.9317    -3.9790 H       
  47 H47            4.5291     3.1424    -2.6828 H       
  48 H48            4.2616     1.4191    -2.3262 H       
  49 H49            2.8249     4.4503    -1.6014 H       
  50 H50            1.3447     4.6581    -2.5677 H       
  51 H51           -1.1680     7.7409    -0.3063 H       
  52 H52           -1.8819     9.2428    -2.1223 H       
  53 H53           -0.6112     9.3167    -4.2302 H       
  54 H54            1.3739     7.8893    -4.5217 H       
  55 H55            2.0927     6.3935    -2.7026 H       
  56 H56           -1.8649     6.1813     0.1724 H       
  57 H57           -3.4259     6.3836     2.0660 H       
  58 H58           -2.5767     6.3005     4.3758 H       
  59 H59           -0.1668     6.0142     4.7921 H       
  60 H60            1.3932     5.8036     2.8985 H       
  61 H61            3.1296     7.3915    -1.2818 H       
  62 H62            4.5950     6.9891    -0.3550 H       
  63 H63            3.7539     5.7246    -1.2833 H       
  64 H64            2.1633     7.2663     2.3701 H       
  65 H65            3.6908     7.8701     1.6843 H       
  66 H66            2.1395     8.3248     0.9393 H       
  67 H67            3.5241     4.2892     0.6348 H       
  68 H68            4.3479     5.4409     1.7132 H       
  69 H69            2.7225     4.8430     2.1244 H       
@<TRIPOS>BOND
   1    1    2 1
   2    1    5 1
   3    2    3 1
   4    2    6 1
   5    2    7 1
   6    3    4 1
   7    3   37 1
   8    3   38 1
   9    4    5 1
  10    4   17 1
  11    4   39 1
  12    5   18 1
  13    5   40 1
  14    6   41 1
  15    7    8 ar
  16    7   12 ar
  17    8    9 ar
  18    8   42 1
  19    9   10 ar
  20    9   43 1
  21   10   11 ar
  22   10   13 1
  23   11   12 ar
  24   11   44 1
  25   12   45 1
  26   13   14 1
  27   13   15 1
  28   13   16 1
  29   17   46 1
  30   17   47 1
  31   17   48 1
  32   18   19 1
  33   18   49 1
  34   18   50 1
  35   19   20 1
  36   20   21 1
  37   20   27 1
  38   20   33 1
  39   21   22 ar
  40   21   26 ar
  41   22   23 ar
  42   22   51 1
  43   23   24 ar
  44   23   52 1
  45   24   25 ar
  46   24   53 1
  47   25   26 ar
  48   25   54 1
  49   26   55 1
  50   27   28 ar
  51   27   32 ar
  52   28   29 ar
  53   28   56 1
  54   29   30 ar
  55   29   57 1
  56   30   31 ar
  57   30   58 1
  58   31   32 ar
  59   31   59 1
  60   32   60 1
  61   33   34 1
  62   33   36 1
  63   33   35 1
  64   34   61 1
  65   34   62 1
  66   34   63 1
  67   35   64 1
  68   35   65 1
  69   35   66 1
  70   36   67 1
  71   36   68 1
  72   36   69 1

#	End of record

