#	Name: ASD01884267
#	Creating user name:	WinNT
#	Creation time:	15. 06. 2019 19:47

#	Modifying user name:	WinNT
#	Modification time:	15. 06. 2019 19:47

#	Program:	/corina/corina34_cracker 3.40 0067  02.08.2006

@<TRIPOS>MOLECULE
ASD01884267
  36   39    0    0    0
SMALL
NO_CHARGES


@<TRIPOS>ATOM
   1 C1            -0.0169     1.3921     0.0097 C.ar    
   2 C2             0.0021    -0.0041     0.0020 C.ar    
   3 C3            -1.1681    -0.7206     0.0098 C.ar    
   4 C4            -2.4136    -0.0704     0.0257 C.ar    
   5 C5            -2.4177     1.3263     0.0332 C.ar    
   6 C6            -1.2441     2.0549     0.0308 C.ar    
   7 N7            -3.6703    -0.6458     0.0351 N.am    
   8 C8            -4.7417     0.1526     0.0500 C.2     
   9 S9            -4.1191     1.8111     0.0528 S.3     
  10 Br10          -1.3010     3.9450     0.0413 Br      
  11 C11            1.2499     2.1594     0.0017 C.ar    
  12 O12           -5.9096    -0.1903     0.0595 O.2     
  13 C13           -3.8247    -2.1027     0.0283 C.3     
  14 C14           -3.8638    -2.6181     1.4684 C.3     
  15 C15           -4.1384    -4.1085     1.6781 C.3     
  16 C16           -2.7348    -3.5482     1.9168 C.3     
  17 F17           -1.7457    -3.8624     0.9786 F       
  18 F18           -2.2983    -3.4423     3.2417 F       
  19 C19            2.1020     2.0932    -1.0972 C.ar    
  20 C20            3.2820     2.8096    -1.1003 C.ar    
  21 C21            3.6278     3.5974    -0.0149 C.ar    
  22 C22            2.7972     3.6764     1.0836 C.ar    
  23 C23            1.5971     2.9645     1.1027 C.ar    
  24 C24            0.7308     3.0426     2.2402 C.1     
  25 N25            0.0435     3.1045     3.1426 N.1     
  26 H26            0.9478    -0.5255    -0.0105 H       
  27 H27           -1.1313    -1.7999     0.0033 H       
  28 H28           -4.7531    -2.3673    -0.4776 H       
  29 H29           -2.9832    -2.5548    -0.4966 H       
  30 H30           -4.2668    -1.9235     2.2055 H       
  31 H31           -4.7217    -4.3946     2.5533 H       
  32 H32           -4.2911    -4.7219     0.7901 H       
  33 H33            1.8399     1.4810    -1.9474 H       
  34 H34            3.9402     2.7551    -1.9548 H       
  35 H35            4.5537     4.1531    -0.0286 H       
  36 H36            3.0736     4.2922     1.9267 H       
@<TRIPOS>BOND
   1    1    2 ar
   2    1   11 1
   3    1    6 ar
   4    2    3 ar
   5    2   26 1
   6    3    4 ar
   7    3   27 1
   8    4    5 ar
   9    4    7 1
  10    5    6 ar
  11    5    9 1
  12    6   10 1
  13    7    8 am
  14    7   13 1
  15    8    9 1
  16    8   12 2
  17   11   19 ar
  18   11   23 ar
  19   13   14 1
  20   13   28 1
  21   13   29 1
  22   14   15 1
  23   14   16 1
  24   14   30 1
  25   15   16 1
  26   15   31 1
  27   15   32 1
  28   16   17 1
  29   16   18 1
  30   19   20 ar
  31   19   33 1
  32   20   21 ar
  33   20   34 1
  34   21   22 ar
  35   21   35 1
  36   22   23 ar
  37   22   36 1
  38   23   24 1
  39   24   25 3

#	End of record

