#	Name: ASD01814224
#	Creating user name:	WinNT
#	Creation time:	15. 06. 2019 19:31

#	Modifying user name:	WinNT
#	Modification time:	15. 06. 2019 19:31

#	Program:	/corina/corina34_cracker 3.40 0067  02.08.2006

@<TRIPOS>MOLECULE
ASD01814224
  53   56    0    0    0
SMALL
NO_CHARGES


@<TRIPOS>ATOM
   1 N1            -0.6039     1.7527    -1.0165 N.2     
   2 C2            -0.6678     0.4604    -1.2349 C.2     
   3 C3             0.5044    -0.2778    -1.4592 C.2     
   4 C4             1.7033     0.3559    -1.4483 C.2     
   5 N5             1.7413     1.7017    -1.2185 N.pl3   
   6 C6             0.5748     2.3892    -1.0034 C.2     
   7 N7             2.7939     2.6198    -1.1455 N.2     
   8 C8             2.3001     3.8161    -0.8973 C.2     
   9 C9             0.9220     3.7197    -0.8017 C.2     
  10 C10            2.7005     5.2548    -0.6809 C.3     
  11 N11            1.4772     6.0283    -0.4466 N.am    
  12 C12            0.3551     5.0870    -0.5179 C.3     
  13 C13            1.3989     7.3529    -0.2104 C.2     
  14 O14            0.3124     7.8923    -0.1264 O.2     
  15 C15            2.6311     8.1482    -0.0537 C.ar    
  16 C16            2.7762     9.0156     1.0382 C.ar    
  17 C17            3.6624     8.0370    -0.9894 C.ar    
  18 C18            4.8112     8.7825    -0.8378 C.ar    
  19 C19            4.9491     9.6431     0.2401 C.ar    
  20 C20            3.9384     9.7585     1.1758 C.ar    
  21 O21            1.7833     9.1278     1.9557 O.3     
  22 C22            2.0020    10.0313     3.0411 C.3     
  23 C23            0.7826    10.0229     3.9652 C.3     
  24 C24            2.9765    -0.4145    -1.6860 C.3     
  25 Cl25           0.4205    -1.9876    -1.7477 Cl      
  26 C26           -2.0053    -0.2339    -1.2444 C.3     
  27 Br27           6.5320    10.6590     0.4357 Br      
  28 N28            0.6570     8.7032     4.5981 N.3     
  29 C29            1.6480     8.5368     5.6697 C.3     
  30 C30           -0.7057     8.4893     5.1034 C.3     
  31 H31            3.3564     5.3293     0.1865 H       
  32 H32            3.2126     5.6328    -1.5658 H       
  33 H33           -0.3228     5.3796    -1.3198 H       
  34 H34           -0.1784     5.0758     0.4325 H       
  35 H35            3.5596     7.3672    -1.8304 H       
  36 H36            5.6079     8.6957    -1.5618 H       
  37 H37            4.0544    10.4279     2.0153 H       
  38 H38            2.8841     9.7202     3.6007 H       
  39 H39            2.1553    11.0375     2.6510 H       
  40 H40            0.9049    10.7849     4.7349 H       
  41 H41           -0.1151    10.2341     3.3842 H       
  42 H42            2.7400    -1.4661    -1.8482 H       
  43 H43            3.4834    -0.0163    -2.5650 H       
  44 H44            3.6271    -0.3183    -0.8167 H       
  45 H45           -2.7938     0.4939    -1.0531 H       
  46 H46           -2.1670    -0.6976    -2.2175 H       
  47 H47           -2.0223    -1.0002    -0.4694 H       
  48 H48            1.4951     9.3043     6.4284 H       
  49 H49            1.5329     7.5514     6.1213 H       
  50 H50            2.6514     8.6312     5.2545 H       
  51 H51           -1.4035     8.4626     4.2665 H       
  52 H52           -0.7488     7.5430     5.6427 H       
  53 H53           -0.9758     9.3034     5.7760 H       
@<TRIPOS>BOND
   1    1    2 2
   2    1    6 1
   3    2    3 1
   4    2   26 1
   5    3    4 2
   6    3   25 1
   7    4    5 1
   8    4   24 1
   9    5    7 1
  10    5    6 1
  11    6    9 2
  12    7    8 2
  13    8   10 1
  14    8    9 1
  15    9   12 1
  16   10   11 1
  17   10   31 1
  18   10   32 1
  19   11   12 1
  20   11   13 am
  21   12   33 1
  22   12   34 1
  23   13   14 2
  24   13   15 1
  25   15   17 ar
  26   15   16 ar
  27   16   20 ar
  28   16   21 1
  29   17   18 ar
  30   17   35 1
  31   18   19 ar
  32   18   36 1
  33   19   20 ar
  34   19   27 1
  35   20   37 1
  36   21   22 1
  37   22   23 1
  38   22   38 1
  39   22   39 1
  40   23   28 1
  41   23   40 1
  42   23   41 1
  43   24   42 1
  44   24   43 1
  45   24   44 1
  46   26   45 1
  47   26   46 1
  48   26   47 1
  49   28   29 1
  50   28   30 1
  51   29   48 1
  52   29   49 1
  53   29   50 1
  54   30   51 1
  55   30   52 1
  56   30   53 1

#	End of record

