#	Name: ASD01916870
#	Creating user name:	WinNT
#	Creation time:	15. 06. 2019 20:08

#	Modifying user name:	WinNT
#	Modification time:	15. 06. 2019 20:08

#	Program:	/corina/corina34_cracker 3.40 0067  02.08.2006

@<TRIPOS>MOLECULE
ASD01916870
  56   60    0    0    0
SMALL
NO_CHARGES


@<TRIPOS>ATOM
   1 C1            -0.0292     1.3247     0.1055 C.2     
   2 N2             0.0127     0.0370    -0.1633 N.2     
   3 N3            -1.3155    -0.4183    -0.1880 N.pl3   
   4 C4            -2.0936     0.6577     0.0755 C.2     
   5 N5            -1.3046     1.6962     0.2546 N.2     
   6 C6             1.1493     2.2184     0.2292 C.ar    
   7 C7             0.9744     3.5701     0.5182 C.ar    
   8 C8             2.4348     1.7075     0.0625 C.ar    
   9 C9             3.5272     2.5431     0.1787 C.ar    
  10 C10            3.3475     3.8854     0.4600 C.ar    
  11 C11           -1.7694    -1.7867    -0.4480 C.3     
  12 C12           -1.7974    -2.5608     0.8447 C.2     
  13 N13           -2.1858    -3.8514     0.8491 N.am    
  14 O14           -1.4705    -2.0224     1.8811 O.2     
  15 C15           -2.2205    -4.6250     2.0995 C.3     
  16 C16           -3.5965    -5.2877     2.2239 C.3     
  17 N17           -3.8757    -6.0615     1.0068 N.3     
  18 C18           -3.9478    -5.1902    -0.1737 C.3     
  19 C19           -2.5920    -4.5217    -0.3954 C.3     
  20 C20           -5.0350    -6.8046     1.1464 C.ar    
  21 N21           -5.4402    -7.5659     0.1406 N.ar    
  22 C22           -6.5436    -8.2884     0.2414 C.ar    
  23 C23           -7.2773    -8.2419     1.4165 C.ar    
  24 C24           -6.8248    -7.4350     2.4486 C.ar    
  25 N25           -5.7102    -6.7419     2.2846 N.ar    
  26 C26           -3.5705     0.6643     0.1537 C.ar    
  27 C27            2.0738     4.3967     0.6321 C.ar    
  28 C28           -4.2633    -0.5287     0.3699 C.ar    
  29 C29           -5.6377    -0.5232     0.4432 C.ar    
  30 C30           -6.3399     0.6768     0.3013 C.ar    
  31 C31           -5.6460     1.8705     0.0850 C.ar    
  32 C32           -4.2713     1.8645     0.0172 C.ar    
  33 C33           -7.7699     0.6832     0.3771 C.1     
  34 N34           -8.9043     0.6883     0.4372 N.1     
  35 H35           -0.0196     3.9704     0.6524 H       
  36 H36            2.5761     0.6595    -0.1568 H       
  37 H37            4.5240     2.1480     0.0500 H       
  38 H38            4.2051     4.5356     0.5504 H       
  39 H39           -2.7705    -1.7619    -0.8784 H       
  40 H40           -1.0856    -2.2699    -1.1460 H       
  41 H41           -1.4456    -5.3914     2.0775 H       
  42 H42           -2.0568    -3.9591     2.9468 H       
  43 H43           -3.6031    -5.9530     3.0873 H       
  44 H44           -4.3599    -4.5200     2.3499 H       
  45 H45           -4.2092    -5.7847    -1.0491 H       
  46 H46           -4.7063    -4.4238    -0.0143 H       
  47 H47           -2.6719    -3.7891    -1.1985 H       
  48 H48           -1.8501    -5.2763    -0.6569 H       
  49 H49           -6.8691    -8.9068    -0.5820 H       
  50 H50           -8.1821    -8.8214     1.5253 H       
  51 H51           -7.3734    -7.3761     3.3770 H       
  52 H52            1.9392     5.4456     0.8516 H       
  53 H53           -3.7205    -1.4560     0.4791 H       
  54 H54           -6.1733    -1.4460     0.6100 H       
  55 H55           -6.1881     2.7981    -0.0250 H       
  56 H56           -3.7349     2.7868    -0.1500 H       
@<TRIPOS>BOND
   1    1    2 2
   2    1    6 1
   3    1    5 1
   4    2    3 1
   5    3    4 1
   6    3   11 1
   7    4    5 2
   8    4   26 1
   9    6    7 ar
  10    6    8 ar
  11    7   27 ar
  12    7   35 1
  13    8    9 ar
  14    8   36 1
  15    9   10 ar
  16    9   37 1
  17   10   27 ar
  18   10   38 1
  19   11   12 1
  20   11   39 1
  21   11   40 1
  22   12   13 am
  23   12   14 2
  24   13   15 1
  25   13   19 1
  26   15   16 1
  27   15   41 1
  28   15   42 1
  29   16   17 1
  30   16   43 1
  31   16   44 1
  32   17   18 1
  33   17   20 1
  34   18   19 1
  35   18   45 1
  36   18   46 1
  37   19   47 1
  38   19   48 1
  39   20   21 ar
  40   20   25 ar
  41   21   22 ar
  42   22   23 ar
  43   22   49 1
  44   23   24 ar
  45   23   50 1
  46   24   25 ar
  47   24   51 1
  48   26   28 ar
  49   26   32 ar
  50   27   52 1
  51   28   29 ar
  52   28   53 1
  53   29   30 ar
  54   29   54 1
  55   30   31 ar
  56   30   33 1
  57   31   32 ar
  58   31   55 1
  59   32   56 1
  60   33   34 3

#	End of record

