#	Name: ASD01120272
#	Creating user name:	WinNT
#	Creation time:	15. 06. 2019 18:59

#	Modifying user name:	WinNT
#	Modification time:	15. 06. 2019 18:59

#	Program:	/corina/corina34_cracker 3.40 0067  02.08.2006

@<TRIPOS>MOLECULE
ASD01120272
  37   39    0    0    0
SMALL
NO_CHARGES


@<TRIPOS>ATOM
   1 C1            -0.2419     1.9445    -0.2994 C.3     
   2 C2            -0.0965     0.4305    -0.1334 C.3     
   3 N3             0.6311    -0.1189    -1.2802 N.pl3   
   4 C4             2.0058    -0.1704    -1.4111 C.2     
   5 C5             2.3183    -0.7459    -2.6026 C.2     
   6 C6             1.1052    -1.0729    -3.2545 C.ar    
   7 C7             0.0587    -0.6733    -2.4004 C.ar    
   8 C8            -1.2612    -0.8771    -2.7939 C.ar    
   9 C9            -1.5299    -1.4651    -4.0094 C.ar    
  10 C10           -0.4960    -1.8588    -4.8499 C.ar    
  11 C11            0.8054    -1.6733    -4.4846 C.ar    
  12 N12           -2.3723    -0.4633    -1.9077 N.pl3   
  13 O13           -3.2983    -1.2256    -1.6956 O.2     
  14 O14           -2.3606     0.6394    -1.3907 O.2     
  15 C15            2.9745     0.3189    -0.4214 C.2     
  16 O16            4.1669     0.2235    -0.6392 O.2     
  17 O17            2.5415     0.8739     0.7288 O.3     
  18 C18            3.4866     1.2110     1.6453 C.ar    
  19 C19            4.2650     2.3437     1.4559 C.ar    
  20 C20            5.2253     2.6859     2.3886 C.ar    
  21 C21            5.4118     1.9009     3.5108 C.ar    
  22 C22            4.6368     0.7690     3.7031 C.ar    
  23 C23            3.6704     0.4263     2.7744 C.ar    
  24 F24            4.8209     0.0028     4.8004 F       
  25 H25            0.7465     2.4005    -0.3549 H       
  26 H26           -0.7926     2.1583    -1.2155 H       
  27 H27           -0.7833     2.3532     0.5538 H       
  28 H28            0.4542     0.2167     0.7826 H       
  29 H29           -1.0850    -0.0255    -0.0780 H       
  30 H30            3.3135    -0.9220    -2.9833 H       
  31 H31           -2.5546    -1.6221    -4.3125 H       
  32 H32           -0.7245    -2.3189    -5.7999 H       
  33 H33            1.6024    -1.9825    -5.1446 H       
  34 H34            4.1206     2.9578     0.5793 H       
  35 H35            5.8312     3.5675     2.2404 H       
  36 H36            6.1630     2.1702     4.2385 H       
  37 H37            3.0659    -0.4561     2.9238 H       
@<TRIPOS>BOND
   1    1    2 1
   2    1   25 1
   3    1   26 1
   4    1   27 1
   5    2    3 1
   6    2   28 1
   7    2   29 1
   8    3    4 1
   9    3    7 1
  10    4    5 2
  11    4   15 1
  12    5    6 1
  13    5   30 1
  14    6    7 ar
  15    6   11 ar
  16    7    8 ar
  17    8    9 ar
  18    8   12 1
  19    9   10 ar
  20    9   31 1
  21   10   11 ar
  22   10   32 1
  23   11   33 1
  24   12   13 2
  25   12   14 2
  26   15   16 2
  27   15   17 1
  28   17   18 1
  29   18   19 ar
  30   18   23 ar
  31   19   20 ar
  32   19   34 1
  33   20   21 ar
  34   20   35 1
  35   21   22 ar
  36   21   36 1
  37   22   23 ar
  38   22   24 1
  39   23   37 1

#	End of record

