#	Name: ASD02500063
#	Creating user name:	WinNT
#	Creation time:	15. 06. 2019 20:22

#	Modifying user name:	WinNT
#	Modification time:	15. 06. 2019 20:22

#	Program:	/corina/corina34_cracker 3.40 0067  02.08.2006

@<TRIPOS>MOLECULE
ASD02500063
  70   74    0    0    0
SMALL
NO_CHARGES


@<TRIPOS>ATOM
   1 C1             2.7019    -3.0124     1.2534 C.2     
   2 C2             1.4236    -2.2978     1.4110 C.ar    
   3 C3             1.3991    -0.8943     1.4537 C.ar    
   4 C4             0.1868    -0.2325     1.6022 C.ar    
   5 C5            -0.9857    -0.9525     1.7075 C.ar    
   6 C6            -0.9650    -2.3376     1.6657 C.ar    
   7 C7             0.2266    -3.0119     1.5132 C.ar    
   8 O8             3.7264    -2.3889     1.0572 O.2     
   9 O9             2.7362    -4.3573     1.3323 O.3     
  10 N10            2.5802    -0.1721     1.3485 N.3     
  11 C11            3.4125    -0.3467     2.5463 C.3     
  12 C12            4.7763     0.3136     2.3173 C.3     
  13 N13            4.5570     1.7099     1.9105 N.am    
  14 C14            3.6262     1.9739     0.8028 C.3     
  15 C15            2.3077     1.2483     1.0914 C.3     
  16 C16            5.1918     2.7206     2.5365 C.2     
  17 C17            4.8937     4.1182     2.1702 C.ar    
  18 C18            4.6977     5.0773     3.1682 C.ar    
  19 C19            4.4198     6.3801     2.8233 C.ar    
  20 C20            4.3338     6.7435     1.4822 C.ar    
  21 C21            4.5280     5.7906     0.4860 C.ar    
  22 C22            4.8124     4.4874     0.8244 C.ar    
  23 O23            6.0101     2.4805     3.4032 O.2     
  24 S24            5.0668     9.2777     1.6201 S.o2    
  25 O25            4.2621    10.4413     1.7536 O.2     
  26 O26            5.8511     8.7492     2.6806 O.2     
  27 N27            4.0528     8.0608     1.1369 N.am    
  28 N28            7.1582     7.4256     0.5156 N.ar    
  29 C29            8.0183     6.5055     0.1524 C.ar    
  30 C30            8.9144     6.7119    -0.8944 C.ar    
  31 C31            8.9104     7.8981    -1.5713 C.ar    
  32 C32            7.9850     8.8837    -1.1787 C.ar    
  33 C33            7.9222    10.1274    -1.8270 C.ar    
  34 C34            7.0132    11.0547    -1.4172 C.ar    
  35 C35            6.1431    10.7856    -0.3629 C.ar    
  36 C36            6.1772     9.5909     0.2883 C.ar    
  37 C37            7.1019     8.6082    -0.1052 C.ar    
  38 C38            2.8598     8.3722     0.3458 C.3     
  39 C39            4.0091    -5.0013     1.0612 C.3     
  40 C40            3.8256    -6.5202     1.0761 C.3     
  41 H41            0.1619     0.8467     1.6357 H       
  42 H42           -1.9255    -0.4333     1.8235 H       
  43 H43           -1.8885    -2.8912     1.7494 H       
  44 H44            0.2362    -4.0913     1.4772 H       
  45 H45            2.9220     0.1189     3.4011 H       
  46 H46            3.5514    -1.4102     2.7409 H       
  47 H47            5.3552     0.2878     3.2405 H       
  48 H48            5.3125    -0.2171     1.5306 H       
  49 H49            3.4447     3.0459     0.7246 H       
  50 H50            4.0519     1.6029    -0.1295 H       
  51 H51            1.6452     1.3416     0.2308 H       
  52 H52            1.8325     1.6917     1.9664 H       
  53 H53            4.7640     4.7959     4.2088 H       
  54 H54            4.2680     7.1215     3.5939 H       
  55 H55            4.4599     6.0754    -0.5536 H       
  56 H56            4.9680     3.7497     0.0511 H       
  57 H57            8.0329     5.5626     0.6787 H       
  58 H58            9.6118     5.9347    -1.1700 H       
  59 H59            9.5982     8.0752    -2.3849 H       
  60 H60            8.5913    10.3475    -2.6458 H       
  61 H61            6.9656    12.0112    -1.9165 H       
  62 H62            5.4315    11.5378    -0.0561 H       
  63 H63            2.0194     8.5599     1.0141 H       
  64 H64            3.0469     9.2586    -0.2604 H       
  65 H65            2.6254     7.5298    -0.3050 H       
  66 H66            4.3732    -4.6889     0.0825 H       
  67 H67            4.7312    -4.7150     1.8259 H       
  68 H68            3.1723    -6.8153     0.2550 H       
  69 H69            4.7953    -7.0044     0.9609 H       
  70 H70            3.3785    -6.8229     2.0230 H       
@<TRIPOS>BOND
   1    1    2 1
   2    1    8 2
   3    1    9 1
   4    2    3 ar
   5    2    7 ar
   6    3    4 ar
   7    3   10 1
   8    4    5 ar
   9    4   41 1
  10    5    6 ar
  11    5   42 1
  12    6    7 ar
  13    6   43 1
  14    7   44 1
  15    9   39 1
  16   10   11 1
  17   10   15 1
  18   11   12 1
  19   11   45 1
  20   11   46 1
  21   12   13 1
  22   12   47 1
  23   12   48 1
  24   13   14 1
  25   13   16 am
  26   14   15 1
  27   14   49 1
  28   14   50 1
  29   15   51 1
  30   15   52 1
  31   16   17 1
  32   16   23 2
  33   17   18 ar
  34   17   22 ar
  35   18   19 ar
  36   18   53 1
  37   19   20 ar
  38   19   54 1
  39   20   21 ar
  40   20   27 1
  41   21   22 ar
  42   21   55 1
  43   22   56 1
  44   24   25 2
  45   24   26 2
  46   24   27 am
  47   24   36 1
  48   27   38 1
  49   28   29 ar
  50   28   37 ar
  51   29   30 ar
  52   29   57 1
  53   30   31 ar
  54   30   58 1
  55   31   32 ar
  56   31   59 1
  57   32   33 ar
  58   32   37 ar
  59   33   34 ar
  60   33   60 1
  61   34   35 ar
  62   34   61 1
  63   35   36 ar
  64   35   62 1
  65   36   37 ar
  66   38   63 1
  67   38   64 1
  68   38   65 1
  69   39   40 1
  70   39   66 1
  71   39   67 1
  72   40   68 1
  73   40   69 1
  74   40   70 1

#	End of record

