#	Name: ASD09740661
#	Creating user name:	WinNT
#	Creation time:	15. 06. 2019 21:23

#	Modifying user name:	WinNT
#	Modification time:	15. 06. 2019 21:23

#	Program:	/corina/corina34_cracker 3.40 0067  02.08.2006

@<TRIPOS>MOLECULE
ASD09740661
  58   61    0    0    0
SMALL
NO_CHARGES


@<TRIPOS>ATOM
   1 C1            -0.2165    -0.0821    -0.2054 C.1     
   2 C2            -0.2155     1.3499    -0.1959 C.ar    
   3 C3             0.9952     2.0515    -0.2422 C.ar    
   4 C4             0.9956     3.4351    -0.2330 C.ar    
   5 C5            -0.1946     4.1309    -0.1778 C.ar    
   6 C6            -1.4096     3.4424    -0.1307 C.ar    
   7 C7            -1.4201     2.0494    -0.1464 C.ar    
   8 N8            -0.2173    -1.2181    -0.2129 N.1     
   9 F9             2.1644     1.3768    -0.2955 F       
  10 S10           -2.8333     5.9461    -0.0524 S.3     
  11 C11           -2.6824     4.1912    -0.0712 C.2     
  12 N12           -3.8706     3.6573    -0.0242 N.2     
  13 C13           -4.8926     4.4746     0.0252 C.2     
  14 C14           -4.5875     5.7909     0.0214 C.2     
  15 C15           -5.8997     9.9616     2.1178 C.3     
  16 C16           -4.4236     9.6412     2.4351 C.3     
  17 C17           -4.3185     8.1509     2.0471 C.3     
  18 C18           -5.3882     7.9391     0.9975 C.ar    
  19 C19           -5.5561     6.9062     0.0701 C.ar    
  20 C20           -6.6383     6.9300    -0.8093 C.ar    
  21 C21           -7.5387     7.9743    -0.7592 C.ar    
  22 C22           -7.3684     8.9928     0.1595 C.ar    
  23 C23           -6.2954     8.9773     1.0376 C.ar    
  24 O24           -6.0240    11.3016     1.6373 O.3     
  25 Si25          -6.4549    12.3798     2.7828 Si      
  26 C26           -8.1696    11.9841     3.3944 C.3     
  27 C27           -5.2529    12.2905     4.2033 C.3     
  28 C28           -6.4346    14.0963     2.0590 C.3     
  29 C29           -7.4218    14.1697     0.8924 C.3     
  30 C30           -6.8388    15.1077     3.1335 C.3     
  31 C31           -5.0264    14.4213     1.5566 C.3     
  32 H32            1.9316     3.9728    -0.2689 H       
  33 H33           -0.1871     5.2108    -0.1705 H       
  34 H34           -2.3573     1.5137    -0.1150 H       
  35 H35           -5.9119     4.1200     0.0659 H       
  36 H36           -6.5169     9.8182     3.0047 H       
  37 H37           -3.7553    10.2487     1.8248 H       
  38 H38           -4.2159     9.7811     3.4959 H       
  39 H39           -3.3337     7.9366     1.6320 H       
  40 H40           -4.5097     7.5197     2.9149 H       
  41 H41           -6.7710     6.1341    -1.5272 H       
  42 H42           -8.3777     7.9959    -1.4389 H       
  43 H43           -8.0766     9.8076     0.1933 H       
  44 H44           -8.2026    10.9509     3.7401 H       
  45 H45           -8.4245    12.6511     4.2180 H       
  46 H46           -8.8849    12.1188     2.5831 H       
  47 H47           -4.2497    12.5220     3.8454 H       
  48 H48           -5.5409    13.0110     4.9688 H       
  49 H49           -5.2648    11.2862     4.6267 H       
  50 H50           -8.4250    13.9381     1.2502 H       
  51 H51           -7.4098    15.1740     0.4689 H       
  52 H52           -7.1338    13.4491     0.1269 H       
  53 H53           -6.1355    15.0555     3.9646 H       
  54 H54           -6.8269    16.1120     2.7100 H       
  55 H55           -7.8420    14.8762     3.4913 H       
  56 H56           -4.7384    13.7008     0.7911 H       
  57 H57           -5.0145    15.4256     1.1331 H       
  58 H58           -4.3231    14.3691     2.3877 H       
@<TRIPOS>BOND
   1    1    2 1
   2    1    8 3
   3    2    3 ar
   4    2    7 ar
   5    3    4 ar
   6    3    9 1
   7    4    5 ar
   8    4   32 1
   9    5    6 ar
  10    5   33 1
  11    6    7 ar
  12    6   11 1
  13    7   34 1
  14   10   11 1
  15   10   14 1
  16   11   12 2
  17   12   13 1
  18   13   14 2
  19   13   35 1
  20   14   19 1
  21   15   16 1
  22   15   23 1
  23   15   24 1
  24   15   36 1
  25   16   17 1
  26   16   37 1
  27   16   38 1
  28   17   18 1
  29   17   39 1
  30   17   40 1
  31   18   19 ar
  32   18   23 ar
  33   19   20 ar
  34   20   21 ar
  35   20   41 1
  36   21   22 ar
  37   21   42 1
  38   22   23 ar
  39   22   43 1
  40   24   25 1
  41   25   26 1
  42   25   27 1
  43   25   28 1
  44   26   44 1
  45   26   45 1
  46   26   46 1
  47   27   47 1
  48   27   48 1
  49   27   49 1
  50   28   29 1
  51   28   31 1
  52   28   30 1
  53   29   50 1
  54   29   51 1
  55   29   52 1
  56   30   53 1
  57   30   54 1
  58   30   55 1
  59   31   56 1
  60   31   57 1
  61   31   58 1

#	End of record

