#	Name: ASD01190088
#	Creating user name:	WinNT
#	Creation time:	15. 06. 2019 19:07

#	Modifying user name:	WinNT
#	Modification time:	15. 06. 2019 19:07

#	Program:	/corina/corina34_cracker 3.40 0067  02.08.2006

@<TRIPOS>MOLECULE
ASD01190088
  60   65    0    0    0
SMALL
NO_CHARGES


@<TRIPOS>ATOM
   1 C1            -0.0187     1.5258     0.0104 C.3     
   2 C2             0.0093     0.0363     0.3590 C.3     
   3 N3             5.2764     3.3983    -0.2446 N.pl3   
   4 N4             5.6906     2.7182    -1.3945 N.2     
   5 C5             4.7133     1.9953    -1.8636 C.2     
   6 C6             3.5588     2.1849    -0.9911 C.ar    
   7 C7             2.2526     1.6830    -0.9835 C.ar    
   8 C8             1.3882     2.0660     0.0008 C.ar    
   9 C9             1.7928     2.9496     0.9940 C.ar    
  10 C10            3.0627     3.4533     1.0074 C.ar    
  11 C11            3.9667     3.0804     0.0165 C.ar    
  12 C12            6.0720     4.2606     0.5210 C.ar    
  13 C13            7.4270     4.0005     0.6782 C.ar    
  14 C14            8.2095     4.8518     1.4334 C.ar    
  15 C15            7.6437     5.9641     2.0337 C.ar    
  16 C16            6.2926     6.2253     1.8783 C.ar    
  17 C17            5.5078     5.3797     1.1192 C.ar    
  18 F18            8.4108     6.7954     2.7724 F       
  19 F19            0.5837    -0.1362     1.6230 F       
  20 F20           -1.2967    -0.4652     0.3679 F       
  21 F21            0.7665    -0.6518    -0.5951 F       
  22 N22           -1.5996     1.2897    -3.3070 N.pl3   
  23 C23           -1.1145     0.7433    -2.1502 C.2     
  24 C24           -0.6374     1.7115    -1.3511 C.2     
  25 C25           -0.8325     2.9818    -2.0528 C.ar    
  26 C26           -0.5453     4.3142    -1.7413 C.ar    
  27 C27           -0.8561     5.3025    -2.6272 C.ar    
  28 C28           -1.4634     4.9922    -3.8507 C.ar    
  29 C29           -1.7561     3.6719    -4.1753 C.ar    
  30 C30           -1.4424     2.6582    -3.2798 C.ar    
  31 N31           -2.5174     7.1982    -6.5909 N.2     
  32 N32           -2.3849     5.9249    -6.0224 N.pl3   
  33 C33           -1.7957     6.0746    -4.8023 C.2     
  34 C34           -1.5693     7.4103    -4.6211 C.2     
  35 C35           -2.0311     8.0797    -5.7544 C.2     
  36 C36           -2.1920     0.5322    -4.4121 C.3     
  37 C37           -1.1363     0.2486    -5.4495 C.2     
  38 C38           -0.9068    -0.9836    -5.8306 C.2     
  39 O39           -0.7921     2.2286     0.9850 O.3     
  40 H40            4.7507     1.3679    -2.7418 H       
  41 H41            1.9302     0.9964    -1.7524 H       
  42 H42            1.0948     3.2420     1.7645 H       
  43 H43            3.3645     4.1396     1.7848 H       
  44 H44            7.8685     3.1330     0.2104 H       
  45 H45            9.2633     4.6497     1.5561 H       
  46 H46            5.8532     7.0931     2.3476 H       
  47 H47            4.4551     5.5863     0.9942 H       
  48 H48           -1.1155    -0.3106    -1.9145 H       
  49 H49           -0.0778     4.5602    -0.7993 H       
  50 H50           -0.6332     6.3309    -2.3841 H       
  51 H51           -2.2247     3.4362    -5.1194 H       
  52 H52           -2.6630     5.0871    -6.4245 H       
  53 H53           -1.1141     7.8663    -3.7544 H       
  54 H54           -1.9930     9.1470    -5.9151 H       
  55 H55           -2.5922    -0.4086    -4.0343 H       
  56 H56           -2.9962     1.1146    -4.8619 H       
  57 H57           -0.5689     1.0611    -5.8788 H       
  58 H58           -1.4742    -1.7961    -5.4014 H       
  59 H59           -0.1503    -1.1869    -6.5740 H       
  60 H60           -0.8531     3.1806     0.8268 H       
@<TRIPOS>BOND
   1    1    2 1
   2    1    8 1
   3    1   24 1
   4    1   39 1
   5    2   19 1
   6    2   20 1
   7    2   21 1
   8    3    4 1
   9    3   11 1
  10    3   12 1
  11    4    5 2
  12    5    6 1
  13    5   40 1
  14    6    7 ar
  15    6   11 ar
  16    7    8 ar
  17    7   41 1
  18    8    9 ar
  19    9   10 ar
  20    9   42 1
  21   10   11 ar
  22   10   43 1
  23   12   13 ar
  24   12   17 ar
  25   13   14 ar
  26   13   44 1
  27   14   15 ar
  28   14   45 1
  29   15   16 ar
  30   15   18 1
  31   16   17 ar
  32   16   46 1
  33   17   47 1
  34   22   23 1
  35   22   30 1
  36   22   36 1
  37   23   24 2
  38   23   48 1
  39   24   25 1
  40   25   26 ar
  41   25   30 ar
  42   26   27 ar
  43   26   49 1
  44   27   28 ar
  45   27   50 1
  46   28   29 ar
  47   28   33 1
  48   29   30 ar
  49   29   51 1
  50   31   32 1
  51   31   35 2
  52   32   33 1
  53   32   52 1
  54   33   34 2
  55   34   35 1
  56   34   53 1
  57   35   54 1
  58   36   37 1
  59   36   55 1
  60   36   56 1
  61   37   38 2
  62   37   57 1
  63   38   58 1
  64   38   59 1
  65   39   60 1

#	End of record

