#	Name: ASD01150406
#	Creating user name:	WinNT
#	Creation time:	15. 06. 2019 19:04

#	Modifying user name:	WinNT
#	Modification time:	15. 06. 2019 19:04

#	Program:	/corina/corina34_cracker 3.40 0067  02.08.2006

@<TRIPOS>MOLECULE
ASD01150406
  48   50    0    0    0
SMALL
NO_CHARGES


@<TRIPOS>ATOM
   1 C1             0.3806     1.5257     0.7458 C.ar    
   2 C2             0.4561     0.1760     1.0298 C.ar    
   3 C3             1.2862    -0.6436     0.2890 C.ar    
   4 C4             2.0476    -0.1122    -0.7441 C.ar    
   5 C5             1.9738     1.2431    -1.0324 C.ar    
   6 C6             1.1393     2.0635    -0.2868 C.ar    
   7 N7             1.0620     3.4311    -0.5743 N.am    
   8 C8            -0.1427     4.0150    -0.7031 C.2     
   9 N9            -0.2507     5.3282    -0.9789 N.am    
  10 C10            0.8592     6.0799    -1.1309 C.2     
  11 C11            2.1742     5.4484    -0.9915 C.2     
  12 N12            2.2395     4.1744    -0.7182 N.2     
  13 O13            0.7695     7.2677    -1.3811 O.2     
  14 C14           -1.5743     5.9413    -1.1145 C.3     
  15 O15           -1.1494     3.3466    -0.5688 O.2     
  16 C16           -2.0356     6.4430     0.2296 C.ar    
  17 C17           -1.7334     7.7327     0.6258 C.ar    
  18 C18           -2.1551     8.1950     1.8574 C.ar    
  19 C19           -2.8825     7.3639     2.6970 C.ar    
  20 C20           -3.1844     6.0702     2.2972 C.ar    
  21 C21           -2.7652     5.6146     1.0622 C.ar    
  22 N22            2.8886    -0.9427    -1.4931 N.am    
  23 C23            2.5155    -2.2084    -1.7676 C.2     
  24 O24            1.4908    -2.6543    -1.2962 O.2     
  25 C25            3.3714    -3.0695    -2.6603 C.3     
  26 C26            3.4332     6.2602    -1.1559 C.3     
  27 O27           -3.2981     7.8161     3.9093 O.3     
  28 C28           -4.0424     6.9056     4.7211 C.3     
  29 H29           -0.2723     2.1629     1.3239 H       
  30 H30           -0.1346    -0.2395     1.8327 H       
  31 H31            1.3433    -1.6984     0.5138 H       
  32 H32            2.5651     1.6587    -1.8349 H       
  33 H33           -1.5185     6.7754    -1.8139 H       
  34 H34           -2.2813     5.2006    -1.4880 H       
  35 H35           -1.1669     8.3792    -0.0280 H       
  36 H36           -1.9185     9.2024     2.1666 H       
  37 H37           -3.7505     5.4213     2.9490 H       
  38 H38           -3.0000     4.6076     0.7505 H       
  39 H39            3.7402    -0.6076    -1.8148 H       
  40 H40            4.3626    -3.1769    -2.2198 H       
  41 H41            2.9122    -4.0524    -2.7658 H       
  42 H42            3.4585    -2.6020    -3.6412 H       
  43 H43            3.7316     6.6674    -0.1898 H       
  44 H44            4.2284     5.6232    -1.5430 H       
  45 H45            3.2501     7.0773    -1.8537 H       
  46 H46           -3.4351     6.0248     4.9295 H       
  47 H47           -4.3116     7.3915     5.6589 H       
  48 H48           -4.9482     6.6059     4.1940 H       
@<TRIPOS>BOND
   1    1    2 ar
   2    1    6 ar
   3    1   29 1
   4    2    3 ar
   5    2   30 1
   6    3    4 ar
   7    3   31 1
   8    4    5 ar
   9    4   22 1
  10    5    6 ar
  11    5   32 1
  12    6    7 1
  13    7    8 am
  14    7   12 1
  15    8    9 am
  16    8   15 2
  17    9   10 am
  18    9   14 1
  19   10   11 1
  20   10   13 2
  21   11   12 2
  22   11   26 1
  23   14   16 1
  24   14   33 1
  25   14   34 1
  26   16   17 ar
  27   16   21 ar
  28   17   18 ar
  29   17   35 1
  30   18   19 ar
  31   18   36 1
  32   19   20 ar
  33   19   27 1
  34   20   21 ar
  35   20   37 1
  36   21   38 1
  37   22   23 am
  38   22   39 1
  39   23   24 2
  40   23   25 1
  41   25   40 1
  42   25   41 1
  43   25   42 1
  44   26   43 1
  45   26   44 1
  46   26   45 1
  47   27   28 1
  48   28   46 1
  49   28   47 1
  50   28   48 1

#	End of record

