#	Name: ASD05773002
#	Creating user name:	WinNT
#	Creation time:	15. 06. 2019 21:03

#	Modifying user name:	WinNT
#	Modification time:	15. 06. 2019 21:03

#	Program:	/corina/corina34_cracker 3.40 0067  02.08.2006

@<TRIPOS>MOLECULE
ASD05773002
   5    4    0    0    0
SMALL
NO_CHARGES


@<TRIPOS>ATOM
   1 Cl1           -0.0173     1.4234     0.0099 Cl      
   2 O2             0.0021    -0.0041     0.0020 O.2     
   3 O3             1.3221     1.9176    -0.0003 O.2     
   4 O4            -0.7078     1.8964    -1.1467 O.3     
   5 O5            -0.6855     1.8838     1.1845 O.2     
@<TRIPOS>BOND
   1    1    2 2
   2    1    3 2
   3    1    4 1
   4    1    5 2

#	End of record

