#	Name: ASD01881707
#	Creating user name:	WinNT
#	Creation time:	15. 06. 2019 19:43

#	Modifying user name:	WinNT
#	Modification time:	15. 06. 2019 19:43

#	Program:	/corina/corina34_cracker 3.40 0067  02.08.2006

@<TRIPOS>MOLECULE
ASD01881707
  61   65    0    0    0
SMALL
NO_CHARGES


@<TRIPOS>ATOM
   1 C1            -0.3783     1.7992     0.5477 C.3     
   2 C2            -0.2544     0.2780     0.4412 C.3     
   3 C3            -1.6156    -0.3649     0.7149 C.3     
   4 O4             0.1828    -0.0736    -0.8730 O.3     
   5 N5            -1.5115    -1.8209     0.5498 N.3     
   6 C6            -2.7806    -2.4807     0.8843 C.3     
   7 C7            -2.6886    -3.9683     0.5282 C.3     
   8 N8            -1.5012    -4.5337     1.1867 N.am    
   9 C9            -0.2133    -3.8459     1.0093 C.3     
  10 C10           -0.4028    -2.3631     1.3465 C.3     
  11 C11           -1.5908    -5.6527     1.9325 C.2     
  12 O12           -2.6771    -6.1536     2.1487 O.2     
  13 C13           -0.3680    -6.2710     2.4877 C.ar    
  14 C14           -0.4121    -6.9304     3.7171 C.ar    
  15 C15            0.7324    -7.5056     4.2293 C.ar    
  16 C16            1.9223    -7.4295     3.5273 C.ar    
  17 C17            1.9729    -6.7773     2.3081 C.ar    
  18 C18            0.8343    -6.2029     1.7820 C.ar    
  19 O19            0.9138     2.3933     0.4076 O.3     
  20 N20            1.4567     7.8383     0.6543 N.pl3   
  21 N21            2.8468     7.8636     0.4681 N.2     
  22 N22            3.2833     6.6606     0.3386 N.2     
  23 C23            2.2655     5.7810     0.4245 C.ar    
  24 C24            1.0832     6.5139     0.6271 C.ar    
  25 C25            2.1997     4.3828     0.3506 C.ar    
  26 C26            0.9807     3.7497     0.4784 C.ar    
  27 C27           -0.1821     4.4896     0.6791 C.ar    
  28 C28           -0.1336     5.8532     0.7519 C.ar    
  29 C29            0.5766     8.9937     0.8464 C.3     
  30 C30            0.0770     9.4858    -0.5134 C.3     
  31 C31           -0.9522    10.6179    -0.5204 C.3     
  32 C32            0.4900    10.8926    -0.9509 C.3     
  33 Br33           3.7732     3.3700     0.0781 Br      
  34 H34           -1.0345     2.1664    -0.2414 H       
  35 H35           -0.7959     2.0627     1.5194 H       
  36 H36            0.4700    -0.0797     1.1730 H       
  37 H37           -1.9271    -0.1362     1.7341 H       
  38 H38           -2.3510     0.0287     0.0132 H       
  39 H39           -0.4151     0.2139    -1.5765 H       
  40 H40           -2.9761    -2.3736     1.9513 H       
  41 H41           -3.5902    -2.0205     0.3178 H       
  42 H42           -3.5823    -4.4846     0.8784 H       
  43 H43           -2.5968    -4.0811    -0.5521 H       
  44 H44            0.5295    -4.2814     1.6776 H       
  45 H45            0.1164    -3.9470    -0.0247 H       
  46 H46            0.5121    -1.8177     1.1152 H       
  47 H47           -0.6314    -2.2577     2.4070 H       
  48 H48           -1.3401    -6.9898     4.2663 H       
  49 H49            0.6997    -8.0160     5.1805 H       
  50 H50            2.8157    -7.8808     3.9331 H       
  51 H51            2.9048    -6.7215     1.7652 H       
  52 H52            0.8741    -5.6980     0.8281 H       
  53 H53           -1.1300     3.9814     0.7773 H       
  54 H54           -1.0409     6.4180     0.9075 H       
  55 H55           -0.2743     8.7038     1.4629 H       
  56 H56            1.1286     9.7926     1.3415 H       
  57 H57           -0.0089     8.7228    -1.2870 H       
  58 H58           -1.7150    10.5998    -1.2988 H       
  59 H59           -1.2734    11.0120     0.4437 H       
  60 H60            1.1177    11.4675    -0.2699 H       
  61 H61            0.6761    11.0552    -2.0125 H       
@<TRIPOS>BOND
   1    1    2 1
   2    1   19 1
   3    1   34 1
   4    1   35 1
   5    2    3 1
   6    2    4 1
   7    2   36 1
   8    3    5 1
   9    3   37 1
  10    3   38 1
  11    4   39 1
  12    5    6 1
  13    5   10 1
  14    6    7 1
  15    6   40 1
  16    6   41 1
  17    7    8 1
  18    7   42 1
  19    7   43 1
  20    8    9 1
  21    8   11 am
  22    9   10 1
  23    9   44 1
  24    9   45 1
  25   10   46 1
  26   10   47 1
  27   11   12 2
  28   11   13 1
  29   13   14 ar
  30   13   18 ar
  31   14   15 ar
  32   14   48 1
  33   15   16 ar
  34   15   49 1
  35   16   17 ar
  36   16   50 1
  37   17   18 ar
  38   17   51 1
  39   18   52 1
  40   19   26 1
  41   20   21 1
  42   20   24 1
  43   20   29 1
  44   21   22 2
  45   22   23 1
  46   23   24 ar
  47   23   25 ar
  48   24   28 ar
  49   25   26 ar
  50   25   33 1
  51   26   27 ar
  52   27   28 ar
  53   27   53 1
  54   28   54 1
  55   29   30 1
  56   29   55 1
  57   29   56 1
  58   30   31 1
  59   30   32 1
  60   30   57 1
  61   31   32 1
  62   31   58 1
  63   31   59 1
  64   32   60 1
  65   32   61 1

#	End of record

