#	Name: ASD02198510
#	Creating user name:	WinNT
#	Creation time:	15. 06. 2019 20:19

#	Modifying user name:	WinNT
#	Modification time:	15. 06. 2019 20:19

#	Program:	/corina/corina34_cracker 3.40 0067  02.08.2006

@<TRIPOS>MOLECULE
ASD02198510
  44   47    0    0    0
SMALL
NO_CHARGES


@<TRIPOS>ATOM
   1 C1             0.0920     1.0162    -0.1335 C.2     
   2 C2             0.3459    -0.3138    -0.2178 C.2     
   3 N3             1.6160    -0.7783    -0.2196 N.pl3   
   4 N4             2.6443    -0.0167    -0.1443 N.2     
   5 C5             2.5401     1.2918    -0.0584 C.2     
   6 C6             1.1978     1.8960    -0.0484 C.2     
   7 C7             1.8178    -2.1597    -0.3077 C.ar    
   8 C8             3.2967    -4.0313    -0.5540 C.ar    
   9 C9             2.2169    -4.8922    -0.4818 C.ar    
  10 C10            0.9374    -4.3902    -0.3285 C.ar    
  11 C11            0.7346    -3.0270    -0.2412 C.ar    
  12 C12            3.7472     2.1387     0.0269 C.2     
  13 N13            4.8828     1.8650     0.7362 N.pl3   
  14 N14            5.7741     2.9274     0.5412 N.2     
  15 C15            5.2128     3.8083    -0.2481 C.2     
  16 C16            3.9426     3.3506    -0.5985 C.2     
  17 C17            5.1136     0.7261     1.5183 C.ar    
  18 C18            4.1123     0.2359     2.3461 C.ar    
  19 O19            1.0445     3.1058     0.0294 O.2     
  20 C20            6.3425     0.0817     1.4632 C.ar    
  21 C21            6.5670    -1.0410     2.2357 C.ar    
  22 C22            5.5698    -1.5234     3.0633 C.ar    
  23 C23            4.3431    -0.8872     3.1161 C.ar    
  24 C24            3.1011    -2.6670    -0.4675 C.ar    
  25 S25            2.4709    -6.6322    -0.5933 S.o2    
  26 O26            1.2408    -7.1345    -1.0970 O.2     
  27 O27            3.6751    -6.7637    -1.3362 O.2     
  28 C28            2.7205    -7.1641     1.1230 C.3     
  29 H29           -0.9206     1.3918    -0.1357 H       
  30 H30           -0.4766    -1.0105    -0.2839 H       
  31 H31            4.2946    -4.4266    -0.6738 H       
  32 H32            0.0962    -5.0653    -0.2724 H       
  33 H33           -0.2648    -2.6357    -0.1212 H       
  34 H34            5.6607     4.7346    -0.5766 H       
  35 H35            3.2370     3.8578    -1.2398 H       
  36 H36            3.1541     0.7325     2.3880 H       
  37 H37            7.1216     0.4578     0.8168 H       
  38 H38            7.5224    -1.5428     2.1930 H       
  39 H39            5.7477    -2.4017     3.6661 H       
  40 H40            3.5663    -1.2662     3.7637 H       
  41 H41            3.9448    -1.9952    -0.5243 H       
  42 H42            1.8365    -6.9188     1.7116 H       
  43 H43            2.8871    -8.2410     1.1491 H       
  44 H44            3.5880    -6.6520     1.5395 H       
@<TRIPOS>BOND
   1    1    2 2
   2    1    6 1
   3    1   29 1
   4    2    3 1
   5    2   30 1
   6    3    4 1
   7    3    7 1
   8    4    5 2
   9    5    6 1
  10    5   12 1
  11    6   19 2
  12    7   24 ar
  13    7   11 ar
  14    8    9 ar
  15    8   24 ar
  16    8   31 1
  17    9   10 ar
  18    9   25 1
  19   10   11 ar
  20   10   32 1
  21   11   33 1
  22   12   13 1
  23   12   16 2
  24   13   14 1
  25   13   17 1
  26   14   15 2
  27   15   16 1
  28   15   34 1
  29   16   35 1
  30   17   20 ar
  31   17   18 ar
  32   18   23 ar
  33   18   36 1
  34   20   21 ar
  35   20   37 1
  36   21   22 ar
  37   21   38 1
  38   22   23 ar
  39   22   39 1
  40   23   40 1
  41   24   41 1
  42   25   26 2
  43   25   27 2
  44   25   28 1
  45   28   42 1
  46   28   43 1
  47   28   44 1

#	End of record

