#	Name: ASD02880002
#	Creating user name:	WinNT
#	Creation time:	15. 06. 2019 20:26

#	Modifying user name:	WinNT
#	Modification time:	15. 06. 2019 20:26

#	Program:	/corina/corina34_cracker 3.40 0067  02.08.2006

@<TRIPOS>MOLECULE
ASD02880002
   7    6    0    0    0
SMALL
NO_CHARGES


@<TRIPOS>ATOM
   1 S1            -0.0186     1.5178     0.0104 S.o2    
   2 O2             0.0021    -0.0041     0.0020 O.3     
   3 O3             1.3390     1.9375    -0.0003 O.2     
   4 O4            -0.9617     1.9117    -0.9768 O.2     
   5 O5            -0.5925     1.9532     1.3511 O.3     
   6 H6             0.3524    -0.3882    -0.8133 H       
   7 H7            -0.6501     2.9121     1.4615 H       
@<TRIPOS>BOND
   1    1    2 1
   2    1    3 2
   3    1    4 2
   4    1    5 1
   5    2    6 1
   6    5    7 1

#	End of record

