#	Name: ASD01918463
#	Creating user name:	WinNT
#	Creation time:	15. 06. 2019 20:11

#	Modifying user name:	WinNT
#	Modification time:	15. 06. 2019 20:11

#	Program:	/corina/corina34_cracker 3.40 0067  02.08.2006

@<TRIPOS>MOLECULE
ASD01918463
  43   46    0    0    0
SMALL
NO_CHARGES


@<TRIPOS>ATOM
   1 C1             0.5694     1.5722    -0.1732 C.3     
   2 C2             0.2920     0.0682    -0.1295 C.3     
   3 C3             0.9266    -0.5880    -1.3571 C.3     
   4 C4             0.9452    -2.0808    -1.1559 C.2     
   5 N5             0.9056    -3.0752    -2.0279 N.2     
   6 C6             0.9576    -4.2118    -1.3755 C.2     
   7 C7             0.9395    -5.5807    -2.0053 C.3     
   8 O8             2.2788    -5.9959    -2.2810 O.3     
   9 C9             2.4404    -7.2175    -2.8541 C.ar    
  10 C10            1.3324    -7.9980    -3.1505 C.ar    
  11 C11            1.4993    -9.2392    -3.7335 C.ar    
  12 C12            2.7693    -9.7040    -4.0214 C.ar    
  13 C13            3.8752    -8.9282    -3.7266 C.ar    
  14 C14            3.7133    -7.6837    -3.1492 C.ar    
  15 O15            1.0299    -3.9633    -0.0583 O.3     
  16 C16            1.0160    -2.6363     0.0990 C.2     
  17 C17            1.0484    -1.7913     1.2974 C.2     
  18 O18            1.2791    -2.2560     2.3982 O.2     
  19 N19            0.8105    -0.4711     1.1220 N.am    
  20 C20            1.0712     0.4081     2.1791 C.ar    
  21 C21            0.0205     1.0211     2.8490 C.ar    
  22 C22            0.2800     1.8880     3.8923 C.ar    
  23 C23            1.5868     2.1461     4.2706 C.ar    
  24 F24            1.8385     2.9941     5.2918 F       
  25 C25            2.6361     1.5359     3.6041 C.ar    
  26 C26            2.3808     0.6642     2.5636 C.ar    
  27 H27            1.6319     1.7506    -0.0078 H       
  28 H28            0.2822     1.9665    -1.1479 H       
  29 H29           -0.0082     2.0709     0.6051 H       
  30 H30           -0.7856    -0.0924    -0.1631 H       
  31 H31            0.3410    -0.3463    -2.2441 H       
  32 H32            1.9464    -0.2233    -1.4799 H       
  33 H33            0.4731    -6.2894    -1.3209 H       
  34 H34            0.3714    -5.5456    -2.9348 H       
  35 H35            0.3403    -7.6358    -2.9252 H       
  36 H36            0.6371    -9.8472    -3.9644 H       
  37 H37            2.8977   -10.6748    -4.4769 H       
  38 H38            4.8662    -9.2936    -3.9521 H       
  39 H39            4.5772    -7.0762    -2.9232 H       
  40 H40           -0.9989     0.8204     2.5540 H       
  41 H41           -0.5369     2.3653     4.4132 H       
  42 H42            3.6546     1.7385     3.9007 H       
  43 H43            3.1993     0.1853     2.0467 H       
@<TRIPOS>BOND
   1    1    2 1
   2    1   27 1
   3    1   28 1
   4    1   29 1
   5    2   19 1
   6    2    3 1
   7    2   30 1
   8    3    4 1
   9    3   31 1
  10    3   32 1
  11    4   16 2
  12    4    5 1
  13    5    6 2
  14    6    7 1
  15    6   15 1
  16    7    8 1
  17    7   33 1
  18    7   34 1
  19    8    9 1
  20    9   14 ar
  21    9   10 ar
  22   10   11 ar
  23   10   35 1
  24   11   12 ar
  25   11   36 1
  26   12   13 ar
  27   12   37 1
  28   13   14 ar
  29   13   38 1
  30   14   39 1
  31   15   16 1
  32   16   17 1
  33   17   18 2
  34   17   19 am
  35   19   20 1
  36   20   26 ar
  37   20   21 ar
  38   21   22 ar
  39   21   40 1
  40   22   23 ar
  41   22   41 1
  42   23   24 1
  43   23   25 ar
  44   25   26 ar
  45   25   42 1
  46   26   43 1

#	End of record

