#	Name: ASD01917655
#	Creating user name:	WinNT
#	Creation time:	15. 06. 2019 20:09

#	Modifying user name:	WinNT
#	Modification time:	15. 06. 2019 20:09

#	Program:	/corina/corina34_cracker 3.40 0067  02.08.2006

@<TRIPOS>MOLECULE
ASD01917655
  65   69    0    0    0
SMALL
NO_CHARGES


@<TRIPOS>ATOM
   1 C1            -0.0167     1.3807     0.0096 C.ar    
   2 C2             0.0021    -0.0041     0.0020 C.ar    
   3 C3            -1.1969    -0.7131     0.0097 C.ar    
   4 C4            -2.4087    -0.0249     0.0249 C.ar    
   5 C5            -1.1840    -2.1966     0.0011 C.2     
   6 N6            -0.0870    -2.9809    -0.0136 N.2     
   7 C7            -2.2750    -3.0061     0.0125 C.2     
   8 N8            -1.8102    -4.2935    -0.0016 N.pl3   
   9 C9            -0.4527    -4.2323    -0.0174 C.2     
  10 C10           -2.5901    -5.4594     0.0033 C.ar    
  11 C11           -3.6052    -5.6126     0.9377 C.ar    
  12 C12           -4.3724    -6.7610     0.9407 C.ar    
  13 C13           -3.1208    -7.6061    -0.9239 C.ar    
  14 C14           -2.3516    -6.4590    -0.9299 C.ar    
  15 C15            0.4780    -5.4174    -0.0371 C.3     
  16 C16            0.7712    -5.8022    -1.4643 C.2     
  17 N17            1.5866    -6.8424    -1.7279 N.am    
  18 O18            0.2735    -5.1757    -2.3758 O.2     
  19 C19            1.8860    -7.2347    -3.1135 C.3     
  20 C20            2.2054    -7.6117    -0.6377 C.3     
  21 C21            3.7128    -7.6999    -0.8989 C.3     
  22 N22            3.9424    -8.2375    -2.2466 N.3     
  23 C23            3.4066    -7.3385    -3.2722 C.3     
  24 C24            5.2936    -8.4851    -2.4607 C.ar    
  25 C25            5.7136    -8.9980    -3.6808 C.ar    
  26 N26            6.1686    -8.2242    -1.5003 N.ar    
  27 C27            7.4608    -8.4435    -1.6592 C.ar    
  28 C28            7.9520    -8.9564    -2.8406 C.ar    
  29 C29            7.0672    -9.2404    -3.8803 C.ar    
  30 C30           -4.1296    -7.7594     0.0123 C.ar    
  31 C31           -2.4181     1.3557     0.0324 C.ar    
  32 C32           -1.2281     2.0587     0.0306 C.ar    
  33 F33           -4.8810    -8.8821     0.0167 F       
  34 O34            7.5168    -9.7463    -5.0571 O.3     
  35 C35            8.9236    -9.9691    -5.1723 C.3     
  36 O36            1.1510     2.0761     0.0022 O.3     
  37 C37            1.0570     3.5019     0.0108 C.3     
  38 H38            0.9437    -0.5328    -0.0102 H       
  39 H39           -3.3402    -0.5714     0.0305 H       
  40 H40           -3.3089    -2.6943     0.0298 H       
  41 H41           -3.7947    -4.8343     1.6621 H       
  42 H42           -5.1620    -6.8806     1.6677 H       
  43 H43           -2.9357    -8.3838    -1.6501 H       
  44 H44           -1.5651    -6.3396    -1.6605 H       
  45 H45            1.4084    -5.1572     0.4676 H       
  46 H46            0.0086    -6.2566     0.4763 H       
  47 H47            1.4288    -8.2007    -3.3275 H       
  48 H48            1.4968    -6.4822    -3.7993 H       
  49 H49            2.0273    -7.1083     0.3125 H       
  50 H50            1.7794    -8.6146    -0.6096 H       
  51 H51            4.1537    -6.7059    -0.8238 H       
  52 H52            4.1718    -8.3584    -0.1615 H       
  53 H53            3.6388    -7.7349    -4.2606 H       
  54 H54            3.8555    -6.3514    -3.1611 H       
  55 H55            4.9987    -9.2058    -4.4631 H       
  56 H56            8.1425    -8.2175    -0.8526 H       
  57 H57            9.0108    -9.1320    -2.9613 H       
  58 H58           -3.3579     1.8877     0.0443 H       
  59 H59           -1.2407     3.1386     0.0369 H       
  60 H60            9.4531    -9.0259    -5.0376 H       
  61 H61            9.2431   -10.6774    -4.4078 H       
  62 H62            9.1478   -10.3739    -6.1591 H       
  63 H63            0.5119     3.8354    -0.8723 H       
  64 H64            0.5289     3.8259     0.9076 H       
  65 H65            2.0585     3.9321     0.0035 H       
@<TRIPOS>BOND
   1    1    2 ar
   2    1   36 1
   3    1   32 ar
   4    2    3 ar
   5    2   38 1
   6    3    4 ar
   7    3    5 1
   8    4   31 ar
   9    4   39 1
  10    5    6 1
  11    5    7 2
  12    6    9 2
  13    7    8 1
  14    7   40 1
  15    8    9 1
  16    8   10 1
  17    9   15 1
  18   10   11 ar
  19   10   14 ar
  20   11   12 ar
  21   11   41 1
  22   12   30 ar
  23   12   42 1
  24   13   14 ar
  25   13   30 ar
  26   13   43 1
  27   14   44 1
  28   15   16 1
  29   15   45 1
  30   15   46 1
  31   16   17 am
  32   16   18 2
  33   17   19 1
  34   17   20 1
  35   19   23 1
  36   19   47 1
  37   19   48 1
  38   20   21 1
  39   20   49 1
  40   20   50 1
  41   21   22 1
  42   21   51 1
  43   21   52 1
  44   22   23 1
  45   22   24 1
  46   23   53 1
  47   23   54 1
  48   24   25 ar
  49   24   26 ar
  50   25   29 ar
  51   25   55 1
  52   26   27 ar
  53   27   28 ar
  54   27   56 1
  55   28   29 ar
  56   28   57 1
  57   29   34 1
  58   30   33 1
  59   31   32 ar
  60   31   58 1
  61   32   59 1
  62   34   35 1
  63   35   60 1
  64   35   61 1
  65   35   62 1
  66   36   37 1
  67   37   63 1
  68   37   64 1
  69   37   65 1

#	End of record

