#	Name: ASD03430544
#	Creating user name:	WinNT
#	Creation time:	15. 06. 2019 20:41

#	Modifying user name:	WinNT
#	Modification time:	15. 06. 2019 20:41

#	Program:	/corina/corina34_cracker 3.40 0067  02.08.2006

@<TRIPOS>MOLECULE
ASD03430544
  39   42    0    0    0
SMALL
NO_CHARGES


@<TRIPOS>ATOM
   1 N1            -0.0161     1.3395     0.0094 N.am    
   2 C2             0.0021    -0.0041     0.0020 C.2     
   3 C3             1.4548    -0.4298    -0.0141 C.3     
   4 C4             2.2197     0.8737    -0.0144 C.ar    
   5 C5             3.5641     1.1705    -0.0263 C.ar    
   6 C6             3.9795     2.4906    -0.0239 C.ar    
   7 C7             3.0415     3.5068    -0.0095 C.ar    
   8 C8             1.6940     3.2122     0.0024 C.ar    
   9 C9             1.2680     1.8853     0.0001 C.ar    
  10 O10           -0.9637    -0.7377     0.0076 O.2     
  11 C11           -1.2434     2.1395     0.0197 C.3     
  12 O12           -1.8262     2.1009     1.3239 O.3     
  13 C13           -1.2147     2.9903     2.2604 C.3     
  14 O14            1.7660    -1.1927     1.1535 O.3     
  15 O15            2.6655    -3.5858    -4.5094 O.3     
  16 C16            2.6990    -4.8564    -3.8329 C.3     
  17 O17            3.0031    -4.5099    -2.4689 O.3     
  18 C18            2.5257    -3.2412    -2.3001 C.ar    
  19 C19            2.3182    -2.6736    -3.5551 C.ar    
  20 C20            2.2444    -2.5116    -1.1570 C.ar    
  21 C21            1.7593    -1.2210    -1.2601 C.ar    
  22 C22            1.5523    -0.6539    -2.5083 C.ar    
  23 C23            1.8321    -1.3808    -3.6559 C.ar    
  24 O24            1.0743     0.6152    -2.6073 O.3     
  25 F25            1.4539    -5.4892    -3.9134 F       
  26 F26            3.7018    -5.6719    -4.3682 F       
  27 H27            4.2935     0.3741    -0.0372 H       
  28 H28            5.0333     2.7266    -0.0329 H       
  29 H29            3.3659     4.5370    -0.0072 H       
  30 H30            0.9677     4.0114     0.0136 H       
  31 H31           -1.0071     3.1708    -0.2422 H       
  32 H32           -1.9483     1.7328    -0.7055 H       
  33 H33           -0.1613     2.7332     2.3711 H       
  34 H34           -1.3026     4.0149     1.8990 H       
  35 H35           -1.7138     2.9013     3.2253 H       
  36 H36            1.2584    -2.0117     1.2350 H       
  37 H37            2.4051    -2.9512    -0.1837 H       
  38 H38            1.6708    -0.9386    -4.6280 H       
  39 H39            1.7626     1.2940    -2.6314 H       
@<TRIPOS>BOND
   1    1    2 am
   2    1    9 1
   3    1   11 1
   4    2    3 1
   5    2   10 2
   6    3    4 1
   7    3   14 1
   8    3   21 1
   9    4    5 ar
  10    4    9 ar
  11    5    6 ar
  12    5   27 1
  13    6    7 ar
  14    6   28 1
  15    7    8 ar
  16    7   29 1
  17    8    9 ar
  18    8   30 1
  19   11   12 1
  20   11   31 1
  21   11   32 1
  22   12   13 1
  23   13   33 1
  24   13   34 1
  25   13   35 1
  26   14   36 1
  27   15   16 1
  28   15   19 1
  29   16   17 1
  30   16   25 1
  31   16   26 1
  32   17   18 1
  33   18   19 ar
  34   18   20 ar
  35   19   23 ar
  36   20   21 ar
  37   20   37 1
  38   21   22 ar
  39   22   23 ar
  40   22   24 1
  41   23   38 1
  42   24   39 1

#	End of record

