#	Name: ASD01912180
#	Creating user name:	WinNT
#	Creation time:	15. 06. 2019 19:59

#	Modifying user name:	WinNT
#	Modification time:	15. 06. 2019 19:59

#	Program:	/corina/corina34_cracker 3.40 0067  02.08.2006

@<TRIPOS>MOLECULE
ASD01912180
  38   41    0    0    0
SMALL
NO_CHARGES


@<TRIPOS>ATOM
   1 C1            -0.0183     1.5107     0.0189 C.3     
   2 C2            -0.0110     0.0037     0.0162 C.2     
   3 O3             0.5367    -0.7860    -0.9129 O.3     
   4 N4             0.3696    -1.9508    -0.6190 N.2     
   5 C5            -0.2895    -2.0401     0.5068 C.2     
   6 N6            -0.5352    -0.7785     0.9267 N.2     
   7 C7            -0.6885    -3.2919     1.1973 C.ar    
   8 C8            -0.3602    -4.5284     0.6469 C.ar    
   9 C9            -0.7346    -5.6913     1.2946 C.ar    
  10 C10           -1.4347    -5.6264     2.4880 C.ar    
  11 C11           -1.7623    -4.4000     3.0370 C.ar    
  12 C12           -1.3880    -3.2337     2.4011 C.ar    
  13 C13            1.4227     2.0710    -0.0076 C.3     
  14 C14            1.3276     3.2975    -0.8882 C.2     
  15 N15            0.1863     3.2697    -1.5978 N.am    
  16 C16           -0.5955     2.0631    -1.3032 C.3     
  17 O17            2.1598     4.1780    -0.9451 O.2     
  18 C18           -0.2063     4.2641    -2.5013 C.ar    
  19 C19            0.5423     5.4272    -2.6240 C.ar    
  20 C20            0.1527     6.4069    -3.5162 C.ar    
  21 C21           -0.9825     6.2301    -4.2875 C.ar    
  22 C22           -1.7303     5.0719    -4.1672 C.ar    
  23 C23           -1.3419     4.0867    -3.2807 C.ar    
  24 Cl24          -1.4698     7.4636    -5.4076 Cl      
  25 F25           -0.4177    -6.8920     0.7626 F       
  26 H26           -0.5703     1.8945     0.8768 H       
  27 H27            0.1854    -4.5789    -0.2838 H       
  28 H28           -1.7260    -6.5365     2.9913 H       
  29 H29           -2.3082    -4.3549     3.9678 H       
  30 H30           -1.6444    -2.2770     2.8316 H       
  31 H31            1.7434     2.3467     0.9970 H       
  32 H32            2.1075     1.3422    -0.4412 H       
  33 H33           -0.4754     1.3314    -2.1021 H       
  34 H34           -1.6482     2.3169    -1.1783 H       
  35 H35            1.4282     5.5658    -2.0220 H       
  36 H36            0.7344     7.3118    -3.6117 H       
  37 H37           -2.6161     4.9365    -4.7701 H       
  38 H38           -1.9258     3.1830    -3.1871 H       
@<TRIPOS>BOND
   1    1    2 1
   2    1   13 1
   3    1   16 1
   4    1   26 1
   5    2    3 1
   6    2    6 2
   7    3    4 1
   8    4    5 2
   9    5    6 1
  10    5    7 1
  11    7    8 ar
  12    7   12 ar
  13    8    9 ar
  14    8   27 1
  15    9   10 ar
  16    9   25 1
  17   10   11 ar
  18   10   28 1
  19   11   12 ar
  20   11   29 1
  21   12   30 1
  22   13   14 1
  23   13   31 1
  24   13   32 1
  25   14   15 am
  26   14   17 2
  27   15   16 1
  28   15   18 1
  29   16   33 1
  30   16   34 1
  31   18   19 ar
  32   18   23 ar
  33   19   20 ar
  34   19   35 1
  35   20   21 ar
  36   20   36 1
  37   21   22 ar
  38   21   24 1
  39   22   23 ar
  40   22   37 1
  41   23   38 1

#	End of record

