#	Name: ASD02038785
#	Creating user name:	WinNT
#	Creation time:	15. 06. 2019 20:17

#	Modifying user name:	WinNT
#	Modification time:	15. 06. 2019 20:17

#	Program:	/corina/corina34_cracker 3.40 0067  02.08.2006

@<TRIPOS>MOLECULE
ASD02038785
  48   50    0    0    0
SMALL
NO_CHARGES


@<TRIPOS>ATOM
   1 C1            -1.2847    -0.8286     0.4561 C.2     
   2 C2            -0.0544    -0.0232     0.3006 C.2     
   3 N3             1.1376    -0.6350     0.1543 N.am    
   4 C4             1.2278    -2.0944     0.2450 C.3     
   5 C5             1.1988    -2.6866    -1.1405 C.ar    
   6 C6             2.3429     0.1593    -0.0954 C.3     
   7 O7            -0.1180     1.1907     0.3048 O.2     
   8 N8            -1.3539    -2.1721     0.4794 N.2     
   9 C9            -2.6131    -2.4937     0.6333 C.2     
  10 N10           -3.3198    -1.3505     0.7048 N.pl3   
  11 N11           -2.5041    -0.3584     0.6016 N.2     
  12 C12            2.3818    -3.0168    -1.7755 C.ar    
  13 C13            2.1439     1.0111    -1.3528 C.3     
  14 C14            3.3763     1.8952    -1.5612 C.3     
  15 O15            3.5800     2.7068    -0.4028 O.3     
  16 C16            3.8185     1.9648     0.7950 C.3     
  17 C17            2.6039     1.0835     1.0980 C.3     
  18 C18           -4.7712    -1.2509     0.8769 C.3     
  19 C19           -0.0106    -2.9044    -1.7732 C.ar    
  20 C20           -0.0385    -3.4478    -3.0438 C.ar    
  21 C21            1.1456    -3.7740    -3.6827 C.ar    
  22 C22            2.3564    -3.5602    -3.0457 C.ar    
  23 F23            1.1195    -4.3052    -4.9246 F       
  24 C24            3.6463    -3.9142    -3.7400 C.3     
  25 F25            4.7252    -3.6096    -2.9032 F       
  26 F26            3.6568    -5.2817    -4.0354 F       
  27 F27            3.7542    -3.1801    -4.9260 F       
  28 C28           -5.0817    -0.3777     2.0942 C.3     
  29 H29            2.1594    -2.3709     0.7388 H       
  30 H30            0.3844    -2.4756     0.8207 H       
  31 H31            3.1951    -0.5056    -0.2365 H       
  32 H32           -3.0129    -3.4952     0.6920 H       
  33 H33            3.3261    -2.8496    -1.2787 H       
  34 H34            2.0125     0.3598    -2.2169 H       
  35 H35            1.2614     1.6392    -1.2314 H       
  36 H36            4.2517     1.2662    -1.7229 H       
  37 H37            3.2222     2.5345    -2.4305 H       
  38 H38            4.6997     1.3367     0.6641 H       
  39 H39            3.9830     2.6542     1.6230 H       
  40 H40            1.7306     1.7131     1.2689 H       
  41 H41            2.8014     0.4840     1.9866 H       
  42 H42           -5.2128    -0.8034    -0.0135 H       
  43 H43           -5.1884    -2.2466     1.0281 H       
  44 H44           -0.9342    -2.6502    -1.2745 H       
  45 H45           -0.9836    -3.6183    -3.5378 H       
  46 H46           -4.6402    -0.8252     2.9846 H       
  47 H47           -4.6646     0.6180     1.9430 H       
  48 H48           -6.1617    -0.3036     2.2222 H       
@<TRIPOS>BOND
   1    1    2 1
   2    1    8 1
   3    1   11 2
   4    2    3 am
   5    2    7 2
   6    3    4 1
   7    3    6 1
   8    4    5 1
   9    4   29 1
  10    4   30 1
  11    5   12 ar
  12    5   19 ar
  13    6   13 1
  14    6   17 1
  15    6   31 1
  16    8    9 2
  17    9   10 1
  18    9   32 1
  19   10   11 1
  20   10   18 1
  21   12   22 ar
  22   12   33 1
  23   13   14 1
  24   13   34 1
  25   13   35 1
  26   14   15 1
  27   14   36 1
  28   14   37 1
  29   15   16 1
  30   16   17 1
  31   16   38 1
  32   16   39 1
  33   17   40 1
  34   17   41 1
  35   18   28 1
  36   18   42 1
  37   18   43 1
  38   19   20 ar
  39   19   44 1
  40   20   21 ar
  41   20   45 1
  42   21   22 ar
  43   21   23 1
  44   22   24 1
  45   24   25 1
  46   24   26 1
  47   24   27 1
  48   28   46 1
  49   28   47 1
  50   28   48 1

#	End of record

