#	Name: ASD01900067
#	Creating user name:	WinNT
#	Creation time:	15. 06. 2019 19:51

#	Modifying user name:	WinNT
#	Modification time:	15. 06. 2019 19:51

#	Program:	/corina/corina34_cracker 3.40 0067  02.08.2006

@<TRIPOS>MOLECULE
ASD01900067
  36   39    0    0    0
SMALL
NO_CHARGES


@<TRIPOS>ATOM
   1 C1             1.0540    -0.4255    -0.8069 C.ar    
   2 C2             0.0017    -0.0035    -0.0052 C.ar    
   3 C3             0.1431     1.1323     0.7810 C.ar    
   4 C4             1.3305     1.8399     0.7638 C.ar    
   5 C5             2.3775     1.4176    -0.0364 C.ar    
   6 C6             2.2393     0.2857    -0.8205 C.ar    
   7 Cl7            3.5553    -0.2412    -1.8225 Cl      
   8 Cl8            1.5081     3.2600     1.7463 Cl      
   9 N9            -1.1993    -0.7213     0.0101 N.am    
  10 C10           -1.1830    -2.0645    -0.0990 C.2     
  11 C11           -2.4658    -2.8460     0.0226 C.3     
  12 O12           -0.1359    -2.6444    -0.2951 O.2     
  13 C13           -2.5314    -4.2255    -0.6625 C.3     
  14 C14           -3.9130    -4.5591    -1.2224 C.2     
  15 O15           -3.6681    -2.0692     0.0110 O.3     
  16 C16           -2.4422    -4.1211     0.8636 C.3     
  17 N17           -4.0856    -5.2803    -2.2829 N.2     
  18 O18           -5.3948    -5.5522    -2.7490 O.3     
  19 C19           -5.0406    -3.9858    -0.4461 C.ar    
  20 C20           -6.2478    -4.6580    -0.3109 C.ar    
  21 C21           -7.2634    -4.0869     0.4326 C.ar    
  22 C22           -7.0757    -2.8553     1.0361 C.ar    
  23 C23           -5.8783    -2.1773     0.9012 C.ar    
  24 C24           -4.8493    -2.7201     0.1605 C.ar    
  25 H25            0.9480    -1.3111    -1.4159 H       
  26 H26           -0.6740     1.4628     1.4052 H       
  27 H27            3.3041     1.9722    -0.0490 H       
  28 H28           -2.0436    -0.2522     0.0992 H       
  29 H29           -1.6736    -4.5790    -1.2345 H       
  30 H30           -1.4972    -4.3968     1.3317 H       
  31 H31           -3.3375    -4.3615     1.4369 H       
  32 H32           -5.4228    -6.0983    -3.5465 H       
  33 H33           -6.3922    -5.6186    -0.7828 H       
  34 H34           -8.2058    -4.6026     0.5427 H       
  35 H35           -7.8737    -2.4190     1.6185 H       
  36 H36           -5.7452    -1.2157     1.3746 H       
@<TRIPOS>BOND
   1    1    2 ar
   2    1    6 ar
   3    1   25 1
   4    2    3 ar
   5    2    9 1
   6    3    4 ar
   7    3   26 1
   8    4    5 ar
   9    4    8 1
  10    5    6 ar
  11    5   27 1
  12    6    7 1
  13    9   10 am
  14    9   28 1
  15   10   12 2
  16   10   11 1
  17   11   16 1
  18   11   13 1
  19   11   15 1
  20   13   14 1
  21   13   16 1
  22   13   29 1
  23   14   19 1
  24   14   17 2
  25   15   24 1
  26   16   30 1
  27   16   31 1
  28   17   18 1
  29   18   32 1
  30   19   20 ar
  31   19   24 ar
  32   20   21 ar
  33   20   33 1
  34   21   22 ar
  35   21   34 1
  36   22   23 ar
  37   22   35 1
  38   23   24 ar
  39   23   36 1

#	End of record

