#	Name: ASD09900015
#	Creating user name:	WinNT
#	Creation time:	15. 06. 2019 21:24

#	Modifying user name:	WinNT
#	Modification time:	15. 06. 2019 21:24

#	Program:	/corina/corina34_cracker 3.40 0067  02.08.2006

@<TRIPOS>MOLECULE
ASD09900015
  30   32    0    0    0
SMALL
NO_CHARGES


@<TRIPOS>ATOM
   1 C1            -0.0016     1.3460    -0.0957 C.ar    
   2 C2            -0.0032     0.0020     0.1396 C.ar    
   3 C3             1.1702    -0.6574     0.4841 C.ar    
   4 C4             2.3564     0.0325     0.5947 C.ar    
   5 C5             2.3838     1.4045     0.3591 C.ar    
   6 C6             1.1928     2.0706     0.0099 C.ar    
   7 N7             3.3864     2.3446     0.3902 N.pl3   
   8 C8             2.8509     3.5770     0.0694 C.2     
   9 C9             1.5200     3.4370    -0.1651 C.2     
  10 C10            3.6016     4.8393    -0.0056 C.2     
  11 O11            3.0089     5.8919    -0.1483 O.2     
  12 N12            4.9464     4.8299     0.0838 N.am    
  13 C13            5.8195     6.0091    -0.0090 C.3     
  14 C14            7.2749     5.5131     0.1231 C.3     
  15 C15            7.1713     4.0195    -0.2841 C.3     
  16 C16            5.7850     3.6363     0.2972 C.3     
  17 H17           -0.9179     1.8492    -0.3670 H       
  18 H18           -0.9252    -0.5543     0.0575 H       
  19 H19            1.1515    -1.7215     0.6674 H       
  20 H20            3.2631    -0.4889     0.8638 H       
  21 H21            4.3168     2.1711     0.6029 H       
  22 H22            0.8346     4.2263    -0.4366 H       
  23 H23            5.6806     6.4983    -0.9731 H       
  24 H24            5.5903     6.7046     0.7984 H       
  25 H25            7.9302     6.0543    -0.5595 H       
  26 H26            7.6233     5.6092     1.1514 H       
  27 H27            7.1885     3.9080    -1.3682 H       
  28 H28            7.9635     3.4321     0.1801 H       
  29 H29            5.8654     3.4146     1.3614 H       
  30 H30            5.3722     2.7819    -0.2391 H       
@<TRIPOS>BOND
   1    1    2 ar
   2    1    6 ar
   3    1   17 1
   4    2    3 ar
   5    2   18 1
   6    3    4 ar
   7    3   19 1
   8    4    5 ar
   9    4   20 1
  10    5    7 1
  11    5    6 ar
  12    6    9 1
  13    7    8 1
  14    7   21 1
  15    8    9 2
  16    8   10 1
  17    9   22 1
  18   10   11 2
  19   10   12 am
  20   12   13 1
  21   12   16 1
  22   13   14 1
  23   13   23 1
  24   13   24 1
  25   14   15 1
  26   14   25 1
  27   14   26 1
  28   15   16 1
  29   15   27 1
  30   15   28 1
  31   16   29 1
  32   16   30 1

#	End of record

