#	Name: ASD01813735
#	Creating user name:	WinNT
#	Creation time:	15. 06. 2019 19:31

#	Modifying user name:	WinNT
#	Modification time:	15. 06. 2019 19:31

#	Program:	/corina/corina34_cracker 3.40 0067  02.08.2006

@<TRIPOS>MOLECULE
ASD01813735
  43   46    0    0    0
SMALL
NO_CHARGES


@<TRIPOS>ATOM
   1 C1            -0.0168     1.3835    -0.0515 C.ar    
   2 C2             0.0020    -0.0038    -0.0585 C.ar    
   3 C3             1.1977    -0.6920    -0.0534 C.ar    
   4 C4             2.4035     0.0084    -0.0412 C.ar    
   5 C5             2.3796     1.4130    -0.0341 C.ar    
   6 C6             1.1627     2.0947    -0.0393 C.ar    
   7 N7             3.6056    -0.6668    -0.0350 N.pl3   
   8 C8             4.7891    -0.0410    -0.0219 C.2     
   9 C9             4.8932     1.3356    -0.0135 C.2     
  10 C10            3.6619     2.1417    -0.0212 C.2     
  11 O11            3.7002     3.3596    -0.0146 O.2     
  12 C12            6.2115     1.9851     0.0019 C.2     
  13 O13            6.3001     3.3302     0.0099 O.3     
  14 O14            7.2220     1.3094     0.0073 O.2     
  15 C15            3.5871    -2.1316    -0.0427 C.3     
  16 C16            3.4445    -2.6248    -1.4595 C.ar    
  17 N17            2.2469    -2.7325    -2.0024 N.ar    
  18 N18            2.0733    -3.1468    -3.2047 N.ar    
  19 C19            3.0908    -3.4951    -3.9832 C.ar    
  20 C20            4.3966    -3.4132    -3.4915 C.ar    
  21 C21            4.5734    -2.9596    -2.1936 C.ar    
  22 F22            1.2003    -2.0429    -0.0599 F       
  23 C23            2.8434    -3.9687    -5.3659 C.ar    
  24 C24            3.9115    -4.3341    -6.1822 C.ar    
  25 C25            3.6759    -4.7743    -7.4689 C.ar    
  26 C26            2.3818    -4.8541    -7.9522 C.ar    
  27 C27            1.3146    -4.4942    -7.1512 C.ar    
  28 C28            1.5359    -4.0564    -5.8553 C.ar    
  29 O29            0.4880    -3.7028    -5.0669 O.3     
  30 H30           -0.9607     1.9082    -0.0601 H       
  31 H31           -0.9292    -0.5507    -0.0676 H       
  32 H32            1.1454     3.1746    -0.0342 H       
  33 H33            5.6925    -0.6328    -0.0173 H       
  34 H34            7.1887     3.7116     0.0200 H       
  35 H35            4.5175    -2.5090     0.3815 H       
  36 H36            2.7459    -2.4875     0.5522 H       
  37 H37            5.2412    -3.6906    -4.1046 H       
  38 H38            5.5606    -2.8764    -1.7637 H       
  39 H39            4.9230    -4.2725    -5.8087 H       
  40 H40            4.5046    -5.0573    -8.1009 H       
  41 H41            2.2049    -5.1988    -8.9603 H       
  42 H42            0.3068    -4.5583    -7.5343 H       
  43 H43            0.1233    -4.4321    -4.5472 H       
@<TRIPOS>BOND
   1    1    2 ar
   2    1    6 ar
   3    1   30 1
   4    2    3 ar
   5    2   31 1
   6    3   22 1
   7    3    4 ar
   8    4    5 ar
   9    4    7 1
  10    5    6 ar
  11    5   10 1
  12    6   32 1
  13    7    8 1
  14    7   15 1
  15    8    9 2
  16    8   33 1
  17    9   10 1
  18    9   12 1
  19   10   11 2
  20   12   13 1
  21   12   14 2
  22   13   34 1
  23   15   16 1
  24   15   35 1
  25   15   36 1
  26   16   17 ar
  27   16   21 ar
  28   17   18 ar
  29   18   19 ar
  30   19   20 ar
  31   19   23 1
  32   20   21 ar
  33   20   37 1
  34   21   38 1
  35   23   24 ar
  36   23   28 ar
  37   24   25 ar
  38   24   39 1
  39   25   26 ar
  40   25   40 1
  41   26   27 ar
  42   26   41 1
  43   27   28 ar
  44   27   42 1
  45   28   29 1
  46   29   43 1

#	End of record

