#	Name: ASD01811541
#	Creating user name:	WinNT
#	Creation time:	15. 06. 2019 19:26

#	Modifying user name:	WinNT
#	Modification time:	15. 06. 2019 19:26

#	Program:	/corina/corina34_cracker 3.40 0067  02.08.2006

@<TRIPOS>MOLECULE
ASD01811541
  67   71    0    0    0
SMALL
NO_CHARGES


@<TRIPOS>ATOM
   1 C1            -7.6563     2.4769    -4.1283 C.1     
   2 C2            -6.6461     3.2287    -3.4464 C.ar    
   3 C3            -5.4821     2.5980    -3.0026 C.ar    
   4 C4            -4.5130     3.3283    -2.3464 C.ar    
   5 C5            -4.6926     4.6826    -2.1273 C.ar    
   6 C6            -5.8438     5.3138    -2.5640 C.ar    
   7 C7            -6.8180     4.5970    -3.2275 C.ar    
   8 N8            -8.4577     1.8805    -4.6692 N.1     
   9 N9            -2.5325     7.8388    -0.3129 N.am    
  10 C10           -2.0137     7.3684    -1.6045 C.3     
  11 C11           -3.1180     6.5882    -2.3247 C.3     
  12 C12           -3.6298     5.4737    -1.4093 C.3     
  13 C13           -4.2219     6.0867    -0.1382 C.3     
  14 C14           -3.1301     6.8612     0.6068 C.3     
  15 C15           -2.4565     9.1416     0.0242 C.2     
  16 C16           -3.0591     9.6143     1.2891 C.ar    
  17 C17           -3.9988    10.6477     1.2736 C.ar    
  18 C18           -4.5621    11.0900     2.4537 C.ar    
  19 C19           -4.2010    10.5153     3.6565 C.ar    
  20 C20           -3.2630     9.4816     3.6861 C.ar    
  21 C21           -2.6952     9.0261     2.4985 C.ar    
  22 O22           -1.8927     9.9278    -0.7115 O.2     
  23 C23           -4.8205    11.0054     4.9399 C.3     
  24 C24           -4.3980    11.2814    -0.0341 C.3     
  25 C25           -2.8772     8.8677     4.9755 C.2     
  26 N26           -1.8958     7.9320     5.1539 N.pl3   
  27 C27           -1.8680     7.6400     6.4802 C.2     
  28 C28           -2.8234     8.3931     7.0787 C.2     
  29 N29           -3.4170     9.1337     6.1479 N.2     
  30 C30           -0.9801     6.6800     7.2289 C.3     
  31 C31           -3.0940     8.3364     8.5631 C.3     
  32 C32           -2.4285     7.0659     9.1117 C.3     
  33 O33           -1.0856     6.9785     8.6279 O.3     
  34 C34           -2.4992     9.5695     9.2461 C.3     
  35 C35           -4.6024     8.2809     8.8134 C.3     
  36 H36           -5.3409     1.5408    -3.1723 H       
  37 H37           -3.6122     2.8417    -2.0026 H       
  38 H38           -5.9778     6.3712    -2.3894 H       
  39 H39           -7.7139     5.0919    -3.5721 H       
  40 H40           -1.7148     8.2230    -2.2114 H       
  41 H41           -1.1554     6.7175    -1.4383 H       
  42 H42           -3.9384     7.2623    -2.5708 H       
  43 H43           -2.7177     6.1522    -3.2400 H       
  44 H44           -2.8037     4.8141    -1.1433 H       
  45 H45           -5.0319     6.7656    -0.4049 H       
  46 H46           -4.6073     5.2938     0.5028 H       
  47 H47           -2.3628     6.1690     0.9533 H       
  48 H48           -3.5678     7.3812     1.4589 H       
  49 H49           -5.2882    11.8894     2.4363 H       
  50 H50           -1.9728     8.2235     2.5155 H       
  51 H51           -5.6655    10.3686     5.2018 H       
  52 H52           -4.0786    10.9712     5.7377 H       
  53 H53           -5.1656    12.0310     4.8083 H       
  54 H54           -5.1889    10.6914    -0.4973 H       
  55 H55           -4.7590    12.2936     0.1479 H       
  56 H56           -3.5349    11.3174    -0.6989 H       
  57 H57           -1.3291     7.5500     4.4656 H       
  58 H58           -1.3063     5.6563     7.0449 H       
  59 H59            0.0528     6.8025     6.9028 H       
  60 H60           -2.4199     7.1023    10.2010 H       
  61 H61           -2.9900     6.1914     8.7830 H       
  62 H62           -2.9534    10.4693     8.8311 H       
  63 H63           -2.6976     9.5230    10.3169 H       
  64 H64           -1.4227     9.5948     9.0768 H       
  65 H65           -5.0172     7.3924     8.3373 H       
  66 H66           -4.7914     8.2401     9.8861 H       
  67 H67           -5.0731     9.1706     8.3951 H       
@<TRIPOS>BOND
   1    1    2 1
   2    1    8 3
   3    2    3 ar
   4    2    7 ar
   5    3    4 ar
   6    3   36 1
   7    4    5 ar
   8    4   37 1
   9    5    6 ar
  10    5   12 1
  11    6    7 ar
  12    6   38 1
  13    7   39 1
  14    9   10 1
  15    9   14 1
  16    9   15 am
  17   10   11 1
  18   10   40 1
  19   10   41 1
  20   11   12 1
  21   11   42 1
  22   11   43 1
  23   12   13 1
  24   12   44 1
  25   13   14 1
  26   13   45 1
  27   13   46 1
  28   14   47 1
  29   14   48 1
  30   15   16 1
  31   15   22 2
  32   16   17 ar
  33   16   21 ar
  34   17   18 ar
  35   17   24 1
  36   18   19 ar
  37   18   49 1
  38   19   20 ar
  39   19   23 1
  40   20   21 ar
  41   20   25 1
  42   21   50 1
  43   23   51 1
  44   23   52 1
  45   23   53 1
  46   24   54 1
  47   24   55 1
  48   24   56 1
  49   25   26 1
  50   25   29 2
  51   26   27 1
  52   26   57 1
  53   27   28 2
  54   27   30 1
  55   28   29 1
  56   28   31 1
  57   30   33 1
  58   30   58 1
  59   30   59 1
  60   31   32 1
  61   31   34 1
  62   31   35 1
  63   32   33 1
  64   32   60 1
  65   32   61 1
  66   34   62 1
  67   34   63 1
  68   34   64 1
  69   35   65 1
  70   35   66 1
  71   35   67 1

#	End of record

