#	Name: ASD01912463
#	Creating user name:	WinNT
#	Creation time:	15. 06. 2019 19:59

#	Modifying user name:	WinNT
#	Modification time:	15. 06. 2019 19:59

#	Program:	/corina/corina34_cracker 3.40 0067  02.08.2006

@<TRIPOS>MOLECULE
ASD01912463
  39   40    0    0    0
SMALL
NO_CHARGES


@<TRIPOS>ATOM
   1 C1            -0.0169     1.3928     0.0241 C.ar    
   2 C2             0.0017    -0.0033     0.0131 C.ar    
   3 C3             1.2379    -0.6670    -0.0097 C.ar    
   4 C4             2.3897     0.0931    -0.0203 C.ar    
   5 C5             2.2891     1.4815    -0.0081 C.ar    
   6 N6             1.1074     2.0787     0.0133 N.ar    
   7 C7            -1.2222    -0.7467     0.0252 C.1     
   8 C8            -2.2256    -1.3561     0.0352 C.1     
   9 C9            -3.4495    -2.0994     0.0474 C.ar    
  10 C10           -3.4224    -3.4962     0.0363 C.ar    
  11 C11           -4.6065    -4.2059     0.0481 C.ar    
  12 C12           -5.8183    -3.5361     0.0710 C.ar    
  13 C13           -5.8517    -2.1528     0.0817 C.ar    
  14 C14           -4.6767    -1.4310     0.0764 C.ar    
  15 N15            3.4482     2.2537    -0.0182 N.am    
  16 C16            3.3633     3.5955    -0.1119 C.2     
  17 C17            4.6079     4.4386    -0.0057 C.3     
  18 O18            2.2852     4.1244    -0.2818 O.2     
  19 C19            5.2681     4.2041     1.3545 C.3     
  20 C20            5.5828     4.0512    -1.1194 C.3     
  21 F21            3.3447     6.2704     0.8741 F       
  22 Cl22          -4.5763    -5.9416     0.0337 Cl      
  23 F23            5.3916     6.6989    -0.0456 F       
  24 C24            4.2362     5.9163    -0.1443 C.3     
  25 F25            3.6326     6.1306    -1.3880 F       
  26 H26           -0.9621     1.9151     0.0371 H       
  27 H27            1.2868    -1.7458    -0.0184 H       
  28 H28            3.3585    -0.3839    -0.0374 H       
  29 H29           -2.4778    -4.0193     0.0181 H       
  30 H30           -6.7418    -4.0961     0.0801 H       
  31 H31           -6.8005    -1.6371     0.0992 H       
  32 H32           -4.7047    -0.3514     0.0851 H       
  33 H33            4.3166     1.8257     0.0422 H       
  34 H34            5.5328     3.1514     1.4532 H       
  35 H35            6.1683     4.8139     1.4314 H       
  36 H36            4.5735     4.4800     2.1479 H       
  37 H37            5.1125     4.2183    -2.0884 H       
  38 H38            6.4830     4.6610    -1.0425 H       
  39 H39            5.8476     2.9985    -1.0206 H       
@<TRIPOS>BOND
   1    1    2 ar
   2    1    6 ar
   3    1   26 1
   4    2    3 ar
   5    2    7 1
   6    3    4 ar
   7    3   27 1
   8    4    5 ar
   9    4   28 1
  10    5    6 ar
  11    5   15 1
  12    7    8 3
  13    8    9 1
  14    9   10 ar
  15    9   14 ar
  16   10   11 ar
  17   10   29 1
  18   11   12 ar
  19   11   22 1
  20   12   13 ar
  21   12   30 1
  22   13   14 ar
  23   13   31 1
  24   14   32 1
  25   15   16 am
  26   15   33 1
  27   16   17 1
  28   16   18 2
  29   17   24 1
  30   17   19 1
  31   17   20 1
  32   19   34 1
  33   19   35 1
  34   19   36 1
  35   20   37 1
  36   20   38 1
  37   20   39 1
  38   21   24 1
  39   23   24 1
  40   24   25 1

#	End of record

