#	Name: ASD01916071
#	Creating user name:	WinNT
#	Creation time:	15. 06. 2019 20:06

#	Modifying user name:	WinNT
#	Modification time:	15. 06. 2019 20:06

#	Program:	/corina/corina34_cracker 3.40 0067  02.08.2006

@<TRIPOS>MOLECULE
ASD01916071
  43   45    0    0    0
SMALL
NO_CHARGES


@<TRIPOS>ATOM
   1 C1            -0.0169     1.3974     0.0097 C.ar    
   2 C2             0.0021    -0.0041     0.0020 C.ar    
   3 C3            -1.2070    -0.6758     0.0095 C.ar    
   4 C4            -2.3852     0.0496     0.0241 C.ar    
   5 C5            -3.7040    -0.6796     0.0323 C.3     
   6 C6             1.2059     2.1425     0.0021 C.1     
   7 C7             2.2084     2.7534    -0.0042 C.1     
   8 C8             3.4313     3.4985    -0.0119 C.ar    
   9 C9             3.4022     4.8955    -0.0041 C.ar    
  10 C10            5.8331     3.5564    -0.0288 C.ar    
  11 C11            4.5840     5.6065    -0.0116 C.ar    
  12 N12           -2.3736     1.3687     0.0316 N.ar    
  13 C13           -1.2496     2.0547     0.0192 C.ar    
  14 C14            4.6594     2.8321    -0.0214 C.ar    
  15 C15            5.7965     4.9397    -0.0269 C.ar    
  16 C16           -3.5829    -1.9309    -0.7886 C.2     
  17 N17           -4.2803    -3.0431    -0.5812 N.am    
  18 C18           -5.1789    -3.2469     0.5490 C.3     
  19 C19           -6.1814    -2.0914     0.6433 C.3     
  20 C20           -5.6120    -1.0362     1.5920 C.3     
  21 C21           -4.0850    -1.0176     1.4759 C.3     
  22 O22           -2.7917    -1.9263    -1.7078 O.2     
  23 C23           -4.1376    -4.1330    -1.5496 C.3     
  24 H24            0.9365    -0.5454    -0.0098 H       
  25 H25           -1.2312    -1.7555     0.0035 H       
  26 H26           -4.4718    -0.0385    -0.4008 H       
  27 H27            2.4566     5.4173     0.0074 H       
  28 H28            6.7831     3.0427    -0.0404 H       
  29 H29            4.5631     6.6863    -0.0060 H       
  30 H30           -1.2809     3.1342     0.0258 H       
  31 H31            4.6896     1.7525    -0.0227 H       
  32 H32            6.7187     5.5017    -0.0327 H       
  33 H33           -5.7194    -4.1841     0.4161 H       
  34 H34           -4.5965    -3.2958     1.4691 H       
  35 H35           -6.3322    -1.6546    -0.3439 H       
  36 H36           -7.1310    -2.4599     1.0314 H       
  37 H37           -6.0087    -0.0564     1.3260 H       
  38 H38           -5.8958    -1.2774     2.6164 H       
  39 H39           -3.6867    -1.9976     1.7389 H       
  40 H40           -3.6766    -0.2627     2.1478 H       
  41 H41           -3.4389    -3.8353    -2.3313 H       
  42 H42           -3.7598    -5.0215    -1.0436 H       
  43 H43           -5.1081    -4.3533    -1.9943 H       
@<TRIPOS>BOND
   1    1    2 ar
   2    1    6 1
   3    1   13 ar
   4    2    3 ar
   5    2   24 1
   6    3    4 ar
   7    3   25 1
   8    4   12 ar
   9    4    5 1
  10    5   16 1
  11    5   21 1
  12    5   26 1
  13    6    7 3
  14    7    8 1
  15    8    9 ar
  16    8   14 ar
  17    9   11 ar
  18    9   27 1
  19   10   15 ar
  20   10   14 ar
  21   10   28 1
  22   11   15 ar
  23   11   29 1
  24   12   13 ar
  25   13   30 1
  26   14   31 1
  27   15   32 1
  28   16   17 am
  29   16   22 2
  30   17   18 1
  31   17   23 1
  32   18   19 1
  33   18   33 1
  34   18   34 1
  35   19   20 1
  36   19   35 1
  37   19   36 1
  38   20   21 1
  39   20   37 1
  40   20   38 1
  41   21   39 1
  42   21   40 1
  43   23   41 1
  44   23   42 1
  45   23   43 1

#	End of record

