#	Name: ASD02039394
#	Creating user name:	WinNT
#	Creation time:	15. 06. 2019 20:18

#	Modifying user name:	WinNT
#	Modification time:	15. 06. 2019 20:18

#	Program:	/corina/corina34_cracker 3.40 0067  02.08.2006

@<TRIPOS>MOLECULE
ASD02039394
  47   49    0    0    0
SMALL
NO_CHARGES


@<TRIPOS>ATOM
   1 C1            -0.1271     1.5233    -0.1521 C.ar    
   2 C2            -0.1250     0.1393    -0.0541 C.ar    
   3 C3            -1.3216    -0.5485    -0.1408 C.ar    
   4 C4            -2.5056     1.4158    -0.4018 C.ar    
   5 C5            -1.3375     2.1714    -0.3288 C.ar    
   6 C6            -3.8105     2.0952    -0.5909 C.ar    
   7 C7             1.1588     2.3040    -0.0620 C.3     
   8 N8             1.7991     2.3440    -1.3790 N.am    
   9 C9             1.3655     3.3274    -2.3746 C.3     
  10 C10            2.7870     1.4763    -1.6747 C.2     
  11 C11            3.1633     0.4309    -0.7072 C.2     
  12 C12            4.1818    -0.4662    -0.8447 C.2     
  13 N13            2.5635     0.1888     0.4864 N.2     
  14 C14            3.1667    -0.8085     1.0660 C.2     
  15 N15            4.1769    -1.2395     0.2665 N.pl3   
  16 O16            3.3678     1.5561    -2.7403 O.2     
  17 C17            5.0957    -2.3436     0.5546 C.3     
  18 C18           -4.9852     1.3466    -0.6651 C.ar    
  19 N19           -2.4592     0.0926    -0.3147 N.ar    
  20 C20            2.5143     4.2935    -2.6711 C.3     
  21 C21            0.9611     2.6057    -3.6617 C.3     
  22 Cl22          -4.9237    -0.3835    -0.5356 Cl      
  23 C23           -3.8681     3.4837    -0.6894 C.ar    
  24 C24           -5.0861     4.1111    -0.8656 C.ar    
  25 C25           -6.2482     3.3629    -0.9438 C.ar    
  26 C26           -6.1976     1.9846    -0.8413 C.ar    
  27 Cl27          -5.1598     5.8412    -0.9885 Cl      
  28 H28            0.8023    -0.3957     0.0881 H       
  29 H29           -1.3234    -1.6259    -0.0653 H       
  30 H30           -1.3768     3.2484    -0.3995 H       
  31 H31            0.9445     3.3202     0.2689 H       
  32 H32            1.8267     1.8226     0.6523 H       
  33 H33            0.5127     3.8849    -1.9873 H       
  34 H34            4.8616    -0.5447    -1.6802 H       
  35 H35            2.9079    -1.2242     2.0286 H       
  36 H36            4.6795    -3.2733     0.1665 H       
  37 H37            6.0572    -2.1496     0.0793 H       
  38 H38            5.2339    -2.4294     1.6324 H       
  39 H39            3.3335     3.7503    -3.1422 H       
  40 H40            2.1651     5.0781    -3.3423 H       
  41 H41            2.8627     4.7404    -1.7399 H       
  42 H42            0.2083     1.8511    -3.4339 H       
  43 H43            0.5506     3.3266    -4.3688 H       
  44 H44            1.8362     2.1254    -4.0993 H       
  45 H45           -2.9622     4.0685    -0.6279 H       
  46 H46           -7.1983     3.8576    -1.0812 H       
  47 H47           -7.1073     1.4058    -0.9034 H       
@<TRIPOS>BOND
   1    1    2 ar
   2    1    7 1
   3    1    5 ar
   4    2    3 ar
   5    2   28 1
   6    3   19 ar
   7    3   29 1
   8    4    5 ar
   9    4    6 1
  10    4   19 ar
  11    5   30 1
  12    6   18 ar
  13    6   23 ar
  14    7    8 1
  15    7   31 1
  16    7   32 1
  17    8    9 1
  18    8   10 am
  19    9   20 1
  20    9   21 1
  21    9   33 1
  22   10   11 1
  23   10   16 2
  24   11   12 2
  25   11   13 1
  26   12   15 1
  27   12   34 1
  28   13   14 2
  29   14   15 1
  30   14   35 1
  31   15   17 1
  32   17   36 1
  33   17   37 1
  34   17   38 1
  35   18   22 1
  36   18   26 ar
  37   20   39 1
  38   20   40 1
  39   20   41 1
  40   21   42 1
  41   21   43 1
  42   21   44 1
  43   23   24 ar
  44   23   45 1
  45   24   25 ar
  46   24   27 1
  47   25   26 ar
  48   25   46 1
  49   26   47 1

#	End of record

