#	Name: ASD05250014
#	Creating user name:	WinNT
#	Creation time:	15. 06. 2019 20:58

#	Modifying user name:	WinNT
#	Modification time:	15. 06. 2019 20:58

#	Program:	/corina/corina34_cracker 3.40 0067  02.08.2006

@<TRIPOS>MOLECULE
ASD05250014
  63   66    0    0    0
SMALL
NO_CHARGES


@<TRIPOS>ATOM
   1 C1             0.0718     1.3469    -1.2713 C.ar    
   2 C2             0.0772    -0.0321    -1.1411 C.ar    
   3 N3             1.1912    -0.6927    -0.9068 N.ar    
   4 C4             2.3583    -0.0660    -0.7855 C.ar    
   5 C5             2.4238     1.3329    -0.9071 C.ar    
   6 C6             1.2612     2.0482    -1.1536 C.ar    
   7 N7             3.6249    -0.4915    -0.5497 N.2     
   8 C8             4.4226     0.5469    -0.5242 C.2     
   9 O9             3.7193     1.6742    -0.7390 O.3     
  10 C10            5.8815     0.4893    -0.2933 C.ar    
  11 C11            6.5063    -0.7381    -0.0817 C.ar    
  12 C12            7.8820    -0.7880     0.1350 C.ar    
  13 C13            8.6293     0.3906     0.1396 C.ar    
  14 C14            8.0040     1.6112    -0.0710 C.ar    
  15 C15            6.6358     1.6639    -0.2928 C.ar    
  16 N16            8.7561     2.7909    -0.0653 N.am    
  17 C17            8.2288     3.9239     0.4395 C.2     
  18 C18            9.0562     5.1418     0.5404 C.ar    
  19 O19            7.0715     3.9426     0.8119 O.2     
  20 C20           10.3859     5.1220     0.1132 C.ar    
  21 C21           11.1574     6.2601     0.2085 C.ar    
  22 C22           10.6162     7.4276     0.7286 C.ar    
  23 C23            9.2895     7.4543     1.1570 C.ar    
  24 C24            8.5092     6.3192     1.0585 C.ar    
  25 O25           11.3806     8.5463     0.8209 O.3     
  26 C26           12.7312     8.4486     0.3642 C.3     
  27 C27            7.3970     8.5552     2.0859 C.3     
  28 O28            8.7624     8.5998     1.6665 O.3     
  29 C29            8.5492    -2.0883     0.3605 C.2     
  30 N30            9.8797    -2.1357     0.5701 N.am    
  31 O31            7.8976    -3.1144     0.3568 O.2     
  32 C32           10.5406    -3.4239     0.7934 C.3     
  33 C33           12.0393    -3.1986     1.0032 C.3     
  34 N34           12.7021    -4.4903     1.2272 N.3     
  35 C35           14.1635    -4.3445     1.1967 C.3     
  36 C36           12.2598    -5.0971     2.4898 C.3     
  37 H37           -0.8517     1.8712    -1.4676 H       
  38 H38           -0.8512    -0.5760    -1.2334 H       
  39 H39            1.2825     3.1235    -1.2519 H       
  40 H40            5.9256    -1.6487    -0.0854 H       
  41 H41            9.6955     0.3526     0.3075 H       
  42 H42            6.1522     2.6156    -0.4567 H       
  43 H43            9.6571     2.7934    -0.4247 H       
  44 H44           10.8095     4.2148    -0.2916 H       
  45 H45           12.1855     6.2433    -0.1219 H       
  46 H46            7.4814     6.3385     1.3896 H       
  47 H47           13.2289     9.4096     0.4938 H       
  48 H48           13.2557     7.6870     0.9413 H       
  49 H49           12.7391     8.1747    -0.6908 H       
  50 H50            6.7647     8.2939     1.2373 H       
  51 H51            7.2818     7.8060     2.8691 H       
  52 H52            7.1031     9.5316     2.4710 H       
  53 H53           10.3997    -1.3169     0.5730 H       
  54 H54           10.1176    -3.9008     1.6776 H       
  55 H55           10.3877    -4.0660    -0.0740 H       
  56 H56           12.4623    -2.7217     0.1191 H       
  57 H57           12.1923    -2.5565     1.8707 H       
  58 H58           14.4758    -3.6514     1.9778 H       
  59 H59           14.6291    -5.3156     1.3652 H       
  60 H60           14.4699    -3.9584     0.2246 H       
  61 H61           11.1822    -5.2580     2.4577 H       
  62 H62           12.7657    -6.0521     2.6309 H       
  63 H63           12.5031    -4.4312     3.3178 H       
@<TRIPOS>BOND
   1    1    2 ar
   2    1    6 ar
   3    1   37 1
   4    2    3 ar
   5    2   38 1
   6    3    4 ar
   7    4    5 ar
   8    4    7 1
   9    5    6 ar
  10    5    9 1
  11    6   39 1
  12    7    8 2
  13    8    9 1
  14    8   10 1
  15   10   11 ar
  16   10   15 ar
  17   11   12 ar
  18   11   40 1
  19   12   13 ar
  20   12   29 1
  21   13   14 ar
  22   13   41 1
  23   14   15 ar
  24   14   16 1
  25   15   42 1
  26   16   17 am
  27   16   43 1
  28   17   18 1
  29   17   19 2
  30   18   20 ar
  31   18   24 ar
  32   20   21 ar
  33   20   44 1
  34   21   22 ar
  35   21   45 1
  36   22   23 ar
  37   22   25 1
  38   23   24 ar
  39   23   28 1
  40   24   46 1
  41   25   26 1
  42   26   47 1
  43   26   48 1
  44   26   49 1
  45   27   28 1
  46   27   50 1
  47   27   51 1
  48   27   52 1
  49   29   30 am
  50   29   31 2
  51   30   32 1
  52   30   53 1
  53   32   33 1
  54   32   54 1
  55   32   55 1
  56   33   34 1
  57   33   56 1
  58   33   57 1
  59   34   35 1
  60   34   36 1
  61   35   58 1
  62   35   59 1
  63   35   60 1
  64   36   61 1
  65   36   62 1
  66   36   63 1

#	End of record

