#	Name: ASD01140600
#	Creating user name:	WinNT
#	Creation time:	15. 06. 2019 19:01

#	Modifying user name:	WinNT
#	Modification time:	15. 06. 2019 19:01

#	Program:	/corina/corina34_cracker 3.40 0067  02.08.2006

@<TRIPOS>MOLECULE
ASD01140600
  27   27    0    0    0
SMALL
NO_CHARGES


@<TRIPOS>ATOM
   1 O1             2.7849     2.1225     1.9362 O.2     
   2 C2            -0.0187     1.5254     0.0104 C.3     
   3 C3             0.0021    -0.0041     0.0020 C.3     
   4 C4             2.1249    -0.0691     1.3189 C.3     
   5 C5             0.6612    -0.5208     1.2819 C.3     
   6 C6             1.4195     2.0541    -0.0005 C.3     
   7 C7             2.1684     1.4345     1.1586 C.2     
   8 C8            -0.7471     2.0249    -1.2106 C.2     
   9 C9             2.7501    -0.4613     2.6591 C.3     
  10 C10           -0.2399     1.6754    -2.5860 C.3     
  11 C11           -1.8210     2.7629    -1.0765 C.2     
  12 H12           -0.5285     1.8771     0.9073 H       
  13 H13           -1.0194    -0.3799    -0.0567 H       
  14 H14            0.5660    -0.3540    -0.8626 H       
  15 H15            2.6742    -0.5402     0.5037 H       
  16 H16            0.1353    -0.1206     2.1488 H       
  17 H17            0.6162    -1.6097     1.2999 H       
  18 H18            1.9034     1.7795    -0.9378 H       
  19 H19            1.4116     3.1387     0.1067 H       
  20 H20            2.7021    -1.5436     2.7796 H       
  21 H21            3.7911    -0.1389     2.6827 H       
  22 H22            2.2025     0.0191     3.4699 H       
  23 H23           -0.6996     0.7441    -2.9170 H       
  24 H24           -0.4963     2.4744    -3.2817 H       
  25 H25            0.8429     1.5548    -2.5543 H       
  26 H26           -2.1845     3.0133    -0.0908 H       
  27 H27           -2.3430     3.1208    -1.9516 H       
@<TRIPOS>BOND
   1    1    7 2
   2    2    3 1
   3    2    6 1
   4    2    8 1
   5    2   12 1
   6    3    5 1
   7    3   13 1
   8    3   14 1
   9    4    5 1
  10    4    7 1
  11    4    9 1
  12    4   15 1
  13    5   16 1
  14    5   17 1
  15    6    7 1
  16    6   18 1
  17    6   19 1
  18    8   10 1
  19    8   11 2
  20    9   20 1
  21    9   21 1
  22    9   22 1
  23   10   23 1
  24   10   24 1
  25   10   25 1
  26   11   26 1
  27   11   27 1

#	End of record

