#	Name: ASD05062019
#	Creating user name:	WinNT
#	Creation time:	15. 06. 2019 20:56

#	Modifying user name:	WinNT
#	Modification time:	15. 06. 2019 20:56

#	Program:	/corina/corina34_cracker 3.40 0067  02.08.2006

@<TRIPOS>MOLECULE
ASD05062019
  63   66    0    0    0
SMALL
NO_CHARGES


@<TRIPOS>ATOM
   1 C1            -0.7483     1.6537     1.6392 C.3     
   2 C2            -0.8904     0.2136     2.1657 C.3     
   3 C3             0.4579    -0.4697     1.8415 C.3     
   4 C4             1.4276     0.7296     1.6943 C.3     
   5 N5             0.5934     1.7611     1.0261 N.3     
   6 C6             1.1568     3.1032     1.2242 C.3     
   7 C7             0.1684     4.1378     0.7513 C.2     
   8 N8             0.4719     5.4482     0.8363 N.am    
   9 O9            -0.9003     3.7912     0.2943 O.2     
  10 C10           -0.3958     6.4038     0.2960 C.ar    
  11 C11           -0.5481     7.6360     0.9179 C.ar    
  12 C12           -1.4053     8.5771     0.3821 C.ar    
  13 C13           -2.1118     8.2931    -0.7722 C.ar    
  14 C14           -1.9627     7.0669    -1.3937 C.ar    
  15 C15           -1.1020     6.1240    -0.8666 C.ar    
  16 C16           -3.0467     9.3221    -1.3538 C.3     
  17 C17           -2.2940    10.1908    -2.3285 C.ar    
  18 C18           -2.2279     9.8334    -3.6627 C.ar    
  19 C19           -1.5385    10.6271    -4.5583 C.ar    
  20 C20           -0.9116    11.7854    -4.1178 C.ar    
  21 C21           -0.9803    12.1417    -2.7773 C.ar    
  22 C22           -1.6757    11.3464    -1.8877 C.ar    
  23 N23           -0.2120    12.5915    -5.0226 N.am    
  24 C24            0.4630    12.0285    -6.0443 C.2     
  25 C25            1.3016    12.8860    -6.9568 C.3     
  26 N26            1.9300    12.0417    -7.9815 N.3     
  27 O27            0.3955    10.8318    -6.2295 O.2     
  28 C28            2.5623    12.8643    -9.0291 C.3     
  29 C29            4.0487    12.4550    -9.0969 C.3     
  30 C30            4.0474    11.0308    -8.4816 C.3     
  31 C31            2.9603    11.1642    -7.3862 C.3     
  32 H32           -1.5155     1.8529     0.8909 H       
  33 H33           -0.8375     2.3611     2.4637 H       
  34 H34           -1.0624     0.2196     3.2421 H       
  35 H35           -1.7062    -0.2974     1.6543 H       
  36 H36            0.7683    -1.1184     2.6606 H       
  37 H37            0.3921    -1.0294     0.9085 H       
  38 H38            1.7600     1.0779     2.6722 H       
  39 H39            2.2800     0.4608     1.0703 H       
  40 H40            1.3653     3.2571     2.2830 H       
  41 H41            2.0814     3.1968     0.6545 H       
  42 H42            1.2918     5.7289     1.2720 H       
  43 H43            0.0029     7.8581     1.8199 H       
  44 H44           -1.5243     9.5356     0.8653 H       
  45 H45           -2.5164     6.8479    -2.2947 H       
  46 H46           -0.9857     5.1666    -1.3526 H       
  47 H47           -3.8639     8.8194    -1.8712 H       
  48 H48           -3.4502     9.9408    -0.5523 H       
  49 H49           -2.7156     8.9325    -4.0047 H       
  50 H50           -1.4866    10.3472    -5.6001 H       
  51 H51           -0.4938    13.0419    -2.4317 H       
  52 H52           -1.7297    11.6231    -0.8451 H       
  53 H53           -0.2127    13.5554    -4.9145 H       
  54 H54            0.6685    13.6313    -7.4383 H       
  55 H55            2.0749    13.3875    -6.3748 H       
  56 H56            2.0816    12.6759    -9.9890 H       
  57 H57            2.4798    13.9202    -8.7715 H       
  58 H58            4.3942    12.4281   -10.1303 H       
  59 H59            4.6622    13.1314    -8.5018 H       
  60 H60            3.7640    10.2849    -9.2242 H       
  61 H61            5.0168    10.7941    -8.0430 H       
  62 H62            3.3785    11.6235    -6.4905 H       
  63 H63            2.5371    10.1877    -7.1506 H       
@<TRIPOS>BOND
   1    1    2 1
   2    1    5 1
   3    1   32 1
   4    1   33 1
   5    2    3 1
   6    2   34 1
   7    2   35 1
   8    3    4 1
   9    3   36 1
  10    3   37 1
  11    4    5 1
  12    4   38 1
  13    4   39 1
  14    5    6 1
  15    6    7 1
  16    6   40 1
  17    6   41 1
  18    7    8 am
  19    7    9 2
  20    8   10 1
  21    8   42 1
  22   10   11 ar
  23   10   15 ar
  24   11   12 ar
  25   11   43 1
  26   12   13 ar
  27   12   44 1
  28   13   14 ar
  29   13   16 1
  30   14   15 ar
  31   14   45 1
  32   15   46 1
  33   16   17 1
  34   16   47 1
  35   16   48 1
  36   17   18 ar
  37   17   22 ar
  38   18   19 ar
  39   18   49 1
  40   19   20 ar
  41   19   50 1
  42   20   21 ar
  43   20   23 1
  44   21   22 ar
  45   21   51 1
  46   22   52 1
  47   23   24 am
  48   23   53 1
  49   24   25 1
  50   24   27 2
  51   25   26 1
  52   25   54 1
  53   25   55 1
  54   26   28 1
  55   26   31 1
  56   28   29 1
  57   28   56 1
  58   28   57 1
  59   29   30 1
  60   29   58 1
  61   29   59 1
  62   30   31 1
  63   30   60 1
  64   30   61 1
  65   31   62 1
  66   31   63 1

#	End of record

