#	Name: ASD01151078
#	Creating user name:	WinNT
#	Creation time:	15. 06. 2019 19:05

#	Modifying user name:	WinNT
#	Modification time:	15. 06. 2019 19:05

#	Program:	/corina/corina34_cracker 3.40 0067  02.08.2006

@<TRIPOS>MOLECULE
ASD01151078
  55   58    0    0    0
SMALL
NO_CHARGES


@<TRIPOS>ATOM
   1 C1            -0.0167     1.3792     0.0096 C.ar    
   2 C2             0.0021    -0.0041     0.0020 C.ar    
   3 C3            -1.1818    -0.7129     0.0095 C.ar    
   4 C4            -2.3987    -0.0322     0.0253 C.ar    
   5 C5            -2.4112     1.3623     0.0333 C.ar    
   6 C6            -1.2208     2.0601     0.0306 C.ar    
   7 C7             1.2798     2.1474     0.0014 C.3     
   8 F8             1.6684     2.3922    -1.3201 F       
   9 F9             1.1051     3.3643     0.6691 F       
  10 F10            2.2695     1.3988     0.6474 F       
  11 C11           -3.6735    -0.7875     0.0329 C.ar    
  12 C12           -4.6834    -0.4932     0.9708 C.ar    
  13 C13           -3.9087    -1.8053    -0.8920 C.ar    
  14 N14           -5.8084    -1.1943     0.9406 N.ar    
  15 C15           -5.9840    -2.1561     0.0456 C.ar    
  16 N16           -5.0581    -2.4556    -0.8535 N.ar    
  17 C17           -7.2584    -2.9164     0.0469 C.2     
  18 O18           -8.1217    -2.6537     0.8604 O.2     
  19 N19           -7.4581    -3.8985    -0.8543 N.am    
  20 C20           -8.7162    -4.6491    -0.8529 C.3     
  21 C21           -9.1508    -5.3017    -2.1667 C.3     
  22 C22           -8.6328    -6.1680    -1.0169 C.3     
  23 N23           -4.5039     0.5099     1.9073 N.pl3   
  24 C24           -5.5621     0.8052     2.8764 C.3     
  25 C25           -4.9647     1.4133     4.0560 C.3     
  26 C26           -6.0030     1.6982     5.1604 C.3     
  27 C27           -6.7309     2.9692     4.8158 C.3     
  28 C28           -8.0415     2.7087     4.0490 C.3     
  29 C29           -7.8985     1.6112     2.9772 C.3     
  30 C30           -6.6090     1.7207     2.2093 C.3     
  31 H31            0.9452    -0.5302    -0.0102 H       
  32 H32           -1.1659    -1.7928     0.0028 H       
  33 H33           -3.3506     1.8949     0.0455 H       
  34 H34           -1.2291     3.1401     0.0372 H       
  35 H35           -3.1614    -2.0578    -1.6296 H       
  36 H36           -6.7689    -4.1083    -1.5037 H       
  37 H37           -9.4982    -4.2548    -0.2040 H       
  38 H38          -10.2188    -5.3372    -2.3819 H       
  39 H39           -8.5007    -5.1726    -3.0320 H       
  40 H40           -7.6419    -6.6088    -1.1258 H       
  41 H41           -9.3599    -6.7733    -0.4757 H       
  42 H42           -3.6774     1.0175     1.9220 H       
  43 H43           -6.0450    -0.1279     3.1665 H       
  44 H44           -4.2032     0.7415     4.4522 H       
  45 H45           -4.4899     2.3511     3.7676 H       
  46 H46           -6.7133     0.8733     5.2168 H       
  47 H47           -5.4961     1.8147     6.1183 H       
  48 H48           -6.9617     3.5043     5.7370 H       
  49 H49           -6.0809     3.5925     4.2017 H       
  50 H50           -8.8109     2.4075     4.7599 H       
  51 H51           -8.3556     3.6336     3.5653 H       
  52 H52           -7.9377     0.6363     3.4632 H       
  53 H53           -8.7322     1.6890     2.2793 H       
  54 H54           -6.2582     2.7526     2.2282 H       
  55 H55           -6.7686     1.4042     1.1786 H       
@<TRIPOS>BOND
   1    1    2 ar
   2    1    7 1
   3    1    6 ar
   4    2    3 ar
   5    2   31 1
   6    3    4 ar
   7    3   32 1
   8    4    5 ar
   9    4   11 1
  10    5    6 ar
  11    5   33 1
  12    6   34 1
  13    7    8 1
  14    7    9 1
  15    7   10 1
  16   11   12 ar
  17   11   13 ar
  18   12   14 ar
  19   12   23 1
  20   13   16 ar
  21   13   35 1
  22   14   15 ar
  23   15   16 ar
  24   15   17 1
  25   17   18 2
  26   17   19 am
  27   19   20 1
  28   19   36 1
  29   20   21 1
  30   20   22 1
  31   20   37 1
  32   21   22 1
  33   21   38 1
  34   21   39 1
  35   22   40 1
  36   22   41 1
  37   23   24 1
  38   23   42 1
  39   24   25 1
  40   24   30 1
  41   24   43 1
  42   25   26 1
  43   25   44 1
  44   25   45 1
  45   26   27 1
  46   26   46 1
  47   26   47 1
  48   27   28 1
  49   27   48 1
  50   27   49 1
  51   28   29 1
  52   28   50 1
  53   28   51 1
  54   29   30 1
  55   29   52 1
  56   29   53 1
  57   30   54 1
  58   30   55 1

#	End of record

