#	Name: ASD01816578
#	Creating user name:	WinNT
#	Creation time:	15. 06. 2019 19:35

#	Modifying user name:	WinNT
#	Modification time:	15. 06. 2019 19:35

#	Program:	/corina/corina34_cracker 3.40 0067  02.08.2006

@<TRIPOS>MOLECULE
ASD01816578
  66   71    0    0    0
SMALL
NO_CHARGES


@<TRIPOS>ATOM
   1 C1            -0.0167     1.3812     0.0096 C.ar    
   2 C2             0.0021    -0.0041     0.0020 C.ar    
   3 C3             1.1984    -0.6908    -0.0131 C.ar    
   4 C4             2.4015     0.0061    -0.0204 C.ar    
   5 C5             2.3789     1.4106    -0.0127 C.ar    
   6 C6             1.1664     2.0916     0.0022 C.ar    
   7 N7             3.6054    -0.6770    -0.0347 N.pl3   
   8 C8             4.7971    -0.0584    -0.0423 C.2     
   9 C9             4.9001     1.3105    -0.0364 C.2     
  10 C10            3.6673     2.1304    -0.0207 C.2     
  11 C11            5.9972     2.2731    -0.0422 C.2     
  12 N12            5.4244     3.4961    -0.0313 N.am    
  13 N13            4.0322     3.3795    -0.0185 N.2     
  14 C14            6.1581     4.7641    -0.0316 C.3     
  15 O15            7.1917     2.0232    -0.0541 O.2     
  16 C16            3.5781    -2.1418    -0.0413 C.3     
  17 C17            3.5556    -2.6374    -1.4643 C.ar    
  18 C18            4.7435    -2.8866    -2.1269 C.ar    
  19 C19            4.7261    -3.3404    -3.4313 C.ar    
  20 C20            3.5145    -3.5468    -4.0770 C.ar    
  21 C21            2.3235    -3.2961    -3.4089 C.ar    
  22 C22            2.3472    -2.8473    -2.1028 C.ar    
  23 C23            5.7784     5.5728    -1.2737 C.3     
  24 N24            3.4936    -4.0069    -5.4010 N.pl3   
  25 C25            2.3887    -4.2482    -6.1424 C.2     
  26 C26            5.8003     5.5608     1.2246 C.3     
  27 C27            6.5666     6.8850     1.2243 C.3     
  28 C28            6.1869     7.6937    -0.0178 C.3     
  29 C29            6.5448     6.8970    -1.2741 C.3     
  30 C30            2.7953    -4.6776    -7.3595 C.2     
  31 C31            4.1944    -4.6999    -7.3632 C.2     
  32 N32            4.6137    -4.2925    -6.1923 N.2     
  33 O33            6.1181     4.8168    -2.4659 O.3     
  34 C34            5.3589     5.0211    -3.5539 C.2     
  35 C35            5.6515     4.2719    -4.8284 C.3     
  36 O36            4.4411     5.8057    -3.5115 O.2     
  37 C37            4.6468     4.6859    -5.9055 C.3     
  38 H38           -0.9602     1.9068     0.0170 H       
  39 H39           -0.9288    -0.5516     0.0083 H       
  40 H40            1.2005    -1.7708    -0.0189 H       
  41 H41            1.1508     3.1714     0.0084 H       
  42 H42            5.6984    -0.6535    -0.0530 H       
  43 H43            7.2295     4.5639    -0.0420 H       
  44 H44            4.4658    -2.5240     0.4626 H       
  45 H45            2.6862    -2.4908     0.4791 H       
  46 H46            5.6857    -2.7259    -1.6242 H       
  47 H47            5.6542    -3.5343    -3.9486 H       
  48 H48            1.3794    -3.4554    -3.9087 H       
  49 H49            1.4211    -2.6521    -1.5826 H       
  50 H50            4.7070     5.7730    -1.2634 H       
  51 H51            1.3656    -4.1215    -5.8207 H       
  52 H52            4.7289     5.7610     1.2350 H       
  53 H53            6.0708     4.9847     2.1095 H       
  54 H54            6.3116     7.4526     2.1193 H       
  55 H55            7.6380     6.6848     1.2140 H       
  56 H56            5.1155     7.8939    -0.0075 H       
  57 H57            6.7328     8.6371    -0.0180 H       
  58 H58            7.6162     6.6968    -1.2844 H       
  59 H59            6.2742     7.4731    -2.1589 H       
  60 H60            2.1533    -4.9543    -8.1827 H       
  61 H61            4.8205    -4.9976    -8.1913 H       
  62 H62            6.6616     4.5067    -5.1642 H       
  63 H63            5.5688     3.2003    -4.6470 H       
  64 H64            4.7296     5.7576    -6.0868 H       
  65 H65            4.8584     4.1441    -6.8273 H       
  66 H66            3.6368     4.4512    -5.5697 H       
@<TRIPOS>BOND
   1    1    2 ar
   2    1    6 ar
   3    1   38 1
   4    2    3 ar
   5    2   39 1
   6    3    4 ar
   7    3   40 1
   8    4    5 ar
   9    4    7 1
  10    5    6 ar
  11    5   10 1
  12    6   41 1
  13    7    8 1
  14    7   16 1
  15    8    9 2
  16    8   42 1
  17    9   10 1
  18    9   11 1
  19   10   13 2
  20   11   12 am
  21   11   15 2
  22   12   13 1
  23   12   14 1
  24   14   26 1
  25   14   23 1
  26   14   43 1
  27   16   17 1
  28   16   44 1
  29   16   45 1
  30   17   18 ar
  31   17   22 ar
  32   18   19 ar
  33   18   46 1
  34   19   20 ar
  35   19   47 1
  36   20   21 ar
  37   20   24 1
  38   21   22 ar
  39   21   48 1
  40   22   49 1
  41   23   33 1
  42   23   29 1
  43   23   50 1
  44   24   25 1
  45   24   32 1
  46   25   30 2
  47   25   51 1
  48   26   27 1
  49   26   52 1
  50   26   53 1
  51   27   28 1
  52   27   54 1
  53   27   55 1
  54   28   29 1
  55   28   56 1
  56   28   57 1
  57   29   58 1
  58   29   59 1
  59   30   31 1
  60   30   60 1
  61   31   32 2
  62   31   61 1
  63   33   34 1
  64   34   35 1
  65   34   36 2
  66   35   37 1
  67   35   62 1
  68   35   63 1
  69   37   64 1
  70   37   65 1
  71   37   66 1

#	End of record

