#	Name: ASD01180356
#	Creating user name:	WinNT
#	Creation time:	15. 06. 2019 19:07

#	Modifying user name:	WinNT
#	Modification time:	15. 06. 2019 19:07

#	Program:	/corina/corina34_cracker 3.40 0067  02.08.2006

@<TRIPOS>MOLECULE
ASD01180356
  60   62    0    0    0
SMALL
NO_CHARGES


@<TRIPOS>ATOM
   1 C1            -0.0184     1.5028     0.0103 C.2     
   2 C2             0.0021    -0.0041     0.0020 C.3     
   3 C3             1.4513    -0.4944    -0.0145 C.3     
   4 O4             1.0197     2.1211     0.0037 O.2     
   5 O5            -1.1898     2.1580     0.0194 O.3     
   6 C6             2.6473    -2.6171    -0.0373 C.2     
   7 C7             2.6674    -4.0954    -0.0454 C.ar    
   8 C8             3.8837    -4.7799    -0.0607 C.ar    
   9 C9             3.8954    -6.1594    -0.0677 C.ar    
  10 C10            2.7049    -6.8644    -0.0601 C.ar    
  11 C11            1.4958    -6.1920    -0.0450 C.ar    
  12 C12            1.4701    -4.8127    -0.0320 C.ar    
  13 O13            3.6916    -1.9951    -0.0439 O.2     
  14 N14            1.4712    -1.9592    -0.0225 N.am    
  15 C15            2.7254    -8.3712    -0.0689 C.3     
  16 C16            2.4680    -8.8765    -1.4899 C.3     
  17 C17            2.6119   -10.3993    -1.5236 C.3     
  18 C18            2.3545   -10.9046    -2.9447 C.3     
  19 N19            1.6827    -8.8789     0.8263 N.pl3   
  20 C20            2.0528   -12.5801     2.4935 C.ar    
  21 N21            0.9817   -11.8504     2.7734 N.ar    
  22 C22            0.8278   -10.6465     2.2517 C.ar    
  23 C23            1.8097   -10.1470     1.3978 C.ar    
  24 C24            2.9211   -10.9436     1.1275 C.ar    
  25 N25            3.0068   -12.1378     1.6859 N.ar    
  26 C26            2.1904   -13.9242     3.1049 C.ar    
  27 C27            3.3078   -14.7089     2.8251 C.ar    
  28 C28            3.4305   -15.9590     3.3968 C.ar    
  29 C29            2.4469   -16.4336     4.2459 C.ar    
  30 C30            1.3356   -15.6594     4.5268 C.ar    
  31 C31            1.2055   -14.4051     3.9660 C.ar    
  32 C32            2.5865   -17.7997     4.8667 C.3     
  33 F33            3.2609   -17.6904     6.0875 F       
  34 F34            1.3166   -18.3457     5.0827 F       
  35 F35            3.3114   -18.6312     4.0063 F       
  36 H36           -0.4983    -0.3791     0.8948 H       
  37 H37           -0.5153    -0.3696    -0.8850 H       
  38 H38            1.9516    -0.1193    -0.9073 H       
  39 H39            1.9686    -0.1289     0.8726 H       
  40 H40           -1.1523     3.1243     0.0245 H       
  41 H41            4.8137    -4.2307    -0.0674 H       
  42 H42            4.8359    -6.6902    -0.0796 H       
  43 H43            0.5700    -6.7482    -0.0391 H       
  44 H44            0.5257    -4.2891    -0.0157 H       
  45 H45            0.6378    -2.4556    -0.0172 H       
  46 H46            3.6993    -8.7233     0.2711 H       
  47 H47            1.4593    -8.6000    -1.7967 H       
  48 H48            3.1908    -8.4280    -2.1715 H       
  49 H49            3.6206   -10.6758    -1.2168 H       
  50 H50            1.8891   -10.8477    -0.8421 H       
  51 H51            1.3458   -10.6281    -3.2515 H       
  52 H52            3.0773   -10.4562    -3.6262 H       
  53 H53            2.4570   -11.9895    -2.9687 H       
  54 H54            0.9042    -8.3344     1.0221 H       
  55 H55           -0.0472   -10.0573     2.4835 H       
  56 H56            3.7015   -10.5894     0.4703 H       
  57 H57            4.0760   -14.3396     2.1618 H       
  58 H58            4.2959   -16.5679     3.1807 H       
  59 H59            0.5706   -16.0352     5.1901 H       
  60 H60            0.3399   -13.7994     4.1901 H       
@<TRIPOS>BOND
   1    1    2 1
   2    1    4 2
   3    1    5 1
   4    2    3 1
   5    2   36 1
   6    2   37 1
   7    3   14 1
   8    3   38 1
   9    3   39 1
  10    5   40 1
  11    6    7 1
  12    6   13 2
  13    6   14 am
  14    7    8 ar
  15    7   12 ar
  16    8    9 ar
  17    8   41 1
  18    9   10 ar
  19    9   42 1
  20   10   11 ar
  21   10   15 1
  22   11   12 ar
  23   11   43 1
  24   12   44 1
  25   14   45 1
  26   15   16 1
  27   15   19 1
  28   15   46 1
  29   16   17 1
  30   16   47 1
  31   16   48 1
  32   17   18 1
  33   17   49 1
  34   17   50 1
  35   18   51 1
  36   18   52 1
  37   18   53 1
  38   19   23 1
  39   19   54 1
  40   20   21 ar
  41   20   25 ar
  42   20   26 1
  43   21   22 ar
  44   22   23 ar
  45   22   55 1
  46   23   24 ar
  47   24   25 ar
  48   24   56 1
  49   26   27 ar
  50   26   31 ar
  51   27   28 ar
  52   27   57 1
  53   28   29 ar
  54   28   58 1
  55   29   30 ar
  56   29   32 1
  57   30   31 ar
  58   30   59 1
  59   31   60 1
  60   32   33 1
  61   32   34 1
  62   32   35 1

#	End of record

