#	Name: ASD08150963
#	Creating user name:	WinNT
#	Creation time:	15. 06. 2019 21:16

#	Modifying user name:	WinNT
#	Modification time:	15. 06. 2019 21:16

#	Program:	/corina/corina34_cracker 3.40 0067  02.08.2006

@<TRIPOS>MOLECULE
ASD08150963
  62   67    0    0    0
SMALL
NO_CHARGES


@<TRIPOS>ATOM
   1 N1            -1.0687     2.0631     0.1199 N.2     
   2 C2            -1.1513     0.7747    -0.0445 C.2     
   3 N3             0.0734     0.2661    -0.3601 N.pl3   
   4 C4             0.9588     1.3137    -0.3895 C.ar    
   5 N5             2.2596     1.4366    -0.6320 N.ar    
   6 C6             2.8428     2.6158    -0.5831 C.ar    
   7 N7             2.1817     3.7221    -0.2955 N.ar    
   8 C8             0.8779     3.6978    -0.0386 C.ar    
   9 C9             0.2105     2.4620    -0.0791 C.ar    
  10 N10            0.1937     4.8625     0.2622 N.pl3   
  11 C11            0.9065     6.1418     0.3003 C.3     
  12 C12            1.0692     6.6775    -1.1236 C.3     
  13 N13            0.6503    10.0763     3.1863 N.ar    
  14 C14           -0.0291    10.9391     3.9022 C.ar    
  15 C15           -1.4141    10.8568     4.0283 C.ar    
  16 C16           -2.0978     9.8576     3.3961 C.ar    
  17 C17           -1.3643     8.9335     2.6281 C.ar    
  18 C18           -2.0004     7.8803     1.9498 C.ar    
  19 C19           -1.2620     7.0017     1.2146 C.ar    
  20 C20            0.1205     7.1305     1.1223 C.ar    
  21 C21            0.7801     8.1503     1.7732 C.ar    
  22 C22            0.0423     9.0759     2.5430 C.ar    
  23 Cl23          -3.7239     7.6973     2.0493 Cl      
  24 N24            2.1668     8.2670     1.6728 N.3     
  25 C25            2.8065     8.0867     2.9828 C.3     
  26 C26            4.3276     8.0411     2.8027 C.3     
  27 N27            4.7471     9.2430     2.0660 N.am    
  28 C28            4.0548     9.5656     0.8090 C.3     
  29 C29            2.5445     9.5512     1.0676 C.3     
  30 C30            5.7392    10.0281     2.5305 C.2     
  31 C31            6.0805    11.2825     1.8264 C.ar    
  32 C32            6.2790    12.4601     2.5489 C.ar    
  33 C33            6.5976    13.6271     1.8858 C.ar    
  34 C34            6.7201    13.6320     0.5076 C.ar    
  35 C35            6.5246    12.4681    -0.2145 C.ar    
  36 C36            6.2112    11.2931     0.4368 C.ar    
  37 O37            6.3534     9.7047     3.5284 O.2     
  38 H38           -2.0565     0.1941     0.0547 H       
  39 H39            0.2810    -0.6658    -0.5320 H       
  40 H40            3.9017     2.6808    -0.7853 H       
  41 H41           -0.7579     4.8318     0.4479 H       
  42 H42            1.8895     5.9968     0.7485 H       
  43 H43            1.5198     7.6694    -1.0893 H       
  44 H44            1.7116     6.0061    -1.6932 H       
  45 H45            0.0920     6.7388    -1.6026 H       
  46 H46            0.4987    11.7344     4.4076 H       
  47 H47           -1.9466    11.5820     4.6257 H       
  48 H48           -3.1713     9.7784     3.4833 H       
  49 H49           -1.7571     6.1943     0.6956 H       
  50 H50            2.5422     8.9195     3.6344 H       
  51 H51            2.4649     7.1527     3.4289 H       
  52 H52            4.8115     8.0228     3.7793 H       
  53 H53            4.6029     7.1506     2.2378 H       
  54 H54            4.3584    10.5552     0.4674 H       
  55 H55            4.3039     8.8216     0.0524 H       
  56 H56            2.0128     9.6792     0.1247 H       
  57 H57            2.2838    10.3636     1.7458 H       
  58 H58            6.1829    12.4578     3.6246 H       
  59 H59            6.7515    14.5390     2.4436 H       
  60 H60            6.9691    14.5485    -0.0067 H       
  61 H61            6.6217    12.4787    -1.2901 H       
  62 H62            6.0632    10.3843    -0.1276 H       
@<TRIPOS>BOND
   1    1    2 2
   2    1    9 1
   3    2    3 1
   4    2   38 1
   5    3    4 1
   6    3   39 1
   7    4    5 ar
   8    4    9 ar
   9    5    6 ar
  10    6    7 ar
  11    6   40 1
  12    7    8 ar
  13    8    9 ar
  14    8   10 1
  15   10   11 1
  16   10   41 1
  17   11   12 1
  18   11   20 1
  19   11   42 1
  20   12   43 1
  21   12   44 1
  22   12   45 1
  23   13   14 ar
  24   13   22 ar
  25   14   15 ar
  26   14   46 1
  27   15   16 ar
  28   15   47 1
  29   16   17 ar
  30   16   48 1
  31   17   18 ar
  32   17   22 ar
  33   18   19 ar
  34   18   23 1
  35   19   20 ar
  36   19   49 1
  37   20   21 ar
  38   21   22 ar
  39   21   24 1
  40   24   25 1
  41   24   29 1
  42   25   26 1
  43   25   50 1
  44   25   51 1
  45   26   27 1
  46   26   52 1
  47   26   53 1
  48   27   28 1
  49   27   30 am
  50   28   29 1
  51   28   54 1
  52   28   55 1
  53   29   56 1
  54   29   57 1
  55   30   31 1
  56   30   37 2
  57   31   32 ar
  58   31   36 ar
  59   32   33 ar
  60   32   58 1
  61   33   34 ar
  62   33   59 1
  63   34   35 ar
  64   34   60 1
  65   35   36 ar
  66   35   61 1
  67   36   62 1

#	End of record

