#	Name: ASD01870425
#	Creating user name:	WinNT
#	Creation time:	15. 06. 2019 19:39

#	Modifying user name:	WinNT
#	Modification time:	15. 06. 2019 19:39

#	Program:	/corina/corina34_cracker 3.40 0067  02.08.2006

@<TRIPOS>MOLECULE
ASD01870425
  53   56    0    0    0
SMALL
NO_CHARGES


@<TRIPOS>ATOM
   1 N1            -0.0162     1.3436     0.0094 N.am    
   2 C2             0.0021    -0.0041     0.0020 C.2     
   3 C3            -1.2926    -0.7753     0.0102 C.3     
   4 O4             1.0605    -0.5961    -0.0113 O.2     
   5 C5            -1.1041    -2.3031     0.0002 C.3     
   6 N6            -2.1920    -2.3432     0.9966 N.am    
   7 C7            -1.8956    -0.9592     1.4147 C.3     
   8 S8            -3.3003    -3.4832     1.4596 S.o2    
   9 C9            -2.4774    -4.4000     2.7911 C.3     
  10 C10           -2.1417    -3.4441     3.9399 C.3     
  11 O11           -4.3878    -2.7264     1.9734 O.2     
  12 O12           -3.4578    -4.3054     0.3114 O.2     
  13 C13           -3.4114    -5.4972     3.3109 C.3     
  14 C14           -2.7401    -6.2137     4.4855 C.3     
  15 O15           -2.4266    -5.2629     5.5053 O.3     
  16 C16           -1.5194    -4.2398     5.0902 C.3     
  17 C17            1.2357     2.1156     0.0016 C.3     
  18 C18            1.1612     3.1524    -1.1243 C.3     
  19 N19           -0.0610     3.9524    -0.9688 N.3     
  20 C20           -1.2637     3.1194    -1.1013 C.3     
  21 C21           -1.2886     2.0812     0.0194 C.3     
  22 C22           -0.0840     5.0090    -1.8742 C.ar    
  23 C23           -1.1551     5.9018    -1.9050 C.ar    
  24 C24            0.9662     5.2062    -2.7706 C.ar    
  25 C25            0.9051     6.2651    -3.6518 C.ar    
  26 N26           -0.1292     7.0852    -3.6534 N.ar    
  27 C27           -1.1396     6.9356    -2.8174 C.ar    
  28 H28           -2.0058    -0.4162    -0.7318 H       
  29 H29           -1.3611    -2.7713    -0.9500 H       
  30 H30           -0.1396    -2.6293     0.3895 H       
  31 H31           -1.1636    -0.8907     2.2195 H       
  32 H32           -2.7845    -0.3544     1.5939 H       
  33 H33           -1.5610    -4.8512     2.4107 H       
  34 H34           -1.4335    -2.6917     3.5925 H       
  35 H35           -3.0528    -2.9559     4.2856 H       
  36 H36           -4.3482    -5.0505     3.6439 H       
  37 H37           -3.6113    -6.2132     2.5137 H       
  38 H38           -3.4178    -6.9672     4.8869 H       
  39 H39           -1.8239    -6.6943     4.1426 H       
  40 H40           -0.5872    -4.6946     4.7552 H       
  41 H41           -1.3177    -3.5714     5.9272 H       
  42 H42            1.3592     2.6225     0.9586 H       
  43 H43            2.0778     1.4458    -0.1725 H       
  44 H44            2.0323     3.8057    -1.0753 H       
  45 H45            1.1421     2.6426    -2.0875 H       
  46 H46           -2.1512     3.7488    -1.0356 H       
  47 H47           -1.2490     2.6100    -2.0648 H       
  48 H48           -2.1158     1.3897    -0.1405 H       
  49 H49           -1.4069     2.5823     0.9801 H       
  50 H50           -1.9852     5.7849    -1.2240 H       
  51 H51            1.8156     4.5391    -2.7743 H       
  52 H52            1.7139     6.4257    -4.3492 H       
  53 H53           -1.9670     7.6289    -2.8516 H       
@<TRIPOS>BOND
   1    1    2 am
   2    1   17 1
   3    1   21 1
   4    2    3 1
   5    2    4 2
   6    3    5 1
   7    3    7 1
   8    3   28 1
   9    5    6 1
  10    5   29 1
  11    5   30 1
  12    6    7 1
  13    6    8 am
  14    7   31 1
  15    7   32 1
  16    8    9 1
  17    8   11 2
  18    8   12 2
  19    9   13 1
  20    9   10 1
  21    9   33 1
  22   10   16 1
  23   10   34 1
  24   10   35 1
  25   13   14 1
  26   13   36 1
  27   13   37 1
  28   14   15 1
  29   14   38 1
  30   14   39 1
  31   15   16 1
  32   16   40 1
  33   16   41 1
  34   17   18 1
  35   17   42 1
  36   17   43 1
  37   18   19 1
  38   18   44 1
  39   18   45 1
  40   19   20 1
  41   19   22 1
  42   20   21 1
  43   20   46 1
  44   20   47 1
  45   21   48 1
  46   21   49 1
  47   22   23 ar
  48   22   24 ar
  49   23   27 ar
  50   23   50 1
  51   24   25 ar
  52   24   51 1
  53   25   26 ar
  54   25   52 1
  55   26   27 ar
  56   27   53 1

#	End of record

