#	Name: ASD01900147
#	Creating user name:	WinNT
#	Creation time:	15. 06. 2019 19:51

#	Modifying user name:	WinNT
#	Modification time:	15. 06. 2019 19:51

#	Program:	/corina/corina34_cracker 3.40 0067  02.08.2006

@<TRIPOS>MOLECULE
ASD01900147
  42   44    0    0    0
SMALL
NO_CHARGES


@<TRIPOS>ATOM
   1 C1            -0.0837     1.2230     0.5377 C.2     
   2 N2             0.0056     0.0102    -0.0434 N.am    
   3 O3             0.8937     1.7189     1.0621 O.2     
   4 C4             1.2464    -0.6297    -0.1399 C.ar    
   5 C5             1.3247    -2.0118    -0.0307 C.ar    
   6 C6             2.5527    -2.6442    -0.1267 C.ar    
   7 C7             3.7073    -1.8920    -0.3328 C.ar    
   8 C8             3.6247    -0.5112    -0.4414 C.ar    
   9 C9             2.3983     0.1176    -0.3506 C.ar    
  10 N10            4.9518    -2.5299    -0.4299 N.am    
  11 C11            6.0798    -1.8558    -0.1302 C.2     
  12 O12            2.6318    -3.9974    -0.0197 O.3     
  13 C13            1.4079    -4.7041     0.1914 C.3     
  14 C14            7.3976    -2.4865    -0.3495 C.ar    
  15 O15            6.0127    -0.7286     0.3207 O.2     
  16 C16            8.5689    -1.7908    -0.0399 C.ar    
  17 C17            9.7975    -2.3874    -0.2479 C.ar    
  18 C18            9.8687    -3.6694    -0.7609 C.ar    
  19 C19            8.7116    -4.3638    -1.0696 C.ar    
  20 C20            7.4783    -3.7830    -0.8618 C.ar    
  21 Cl21           8.4808    -0.1809     0.6037 Cl      
  22 C22           -3.5967     2.0709    -0.0521 C.ar    
  23 N23           -3.7309     3.2595     0.5039 N.ar    
  24 C24           -2.7096     3.8541     1.0962 C.ar    
  25 C25           -1.4799     3.2115     1.1296 C.ar    
  26 C26           -1.3744     1.9554     0.5316 C.ar    
  27 N27           -2.4508     1.4248    -0.0446 N.ar    
  28 H28           -0.7901    -0.4191    -0.3947 H       
  29 H29            0.4286    -2.5930     0.1294 H       
  30 H30            4.5196     0.0720    -0.6007 H       
  31 H31            2.3358     1.1924    -0.4353 H       
  32 H32            5.0012    -3.4564    -0.7129 H       
  33 H33            0.9468    -4.3634     1.1185 H       
  34 H34            0.7309    -4.5153    -0.6418 H       
  35 H35            1.6122    -5.7727     0.2586 H       
  36 H36           10.7042    -1.8512    -0.0096 H       
  37 H37           10.8316    -4.1311    -0.9219 H       
  38 H38            8.7749    -5.3648    -1.4700 H       
  39 H39            6.5767    -4.3266    -1.1030 H       
  40 H40           -4.4538     1.6128    -0.5233 H       
  41 H41           -2.8304     4.8276     1.5480 H       
  42 H42           -0.6269     3.6719     1.6058 H       
@<TRIPOS>BOND
   1    1    2 am
   2    1    3 2
   3    1   26 1
   4    2    4 1
   5    2   28 1
   6    4    5 ar
   7    4    9 ar
   8    5    6 ar
   9    5   29 1
  10    6    7 ar
  11    6   12 1
  12    7    8 ar
  13    7   10 1
  14    8    9 ar
  15    8   30 1
  16    9   31 1
  17   10   11 am
  18   10   32 1
  19   11   14 1
  20   11   15 2
  21   12   13 1
  22   13   33 1
  23   13   34 1
  24   13   35 1
  25   14   16 ar
  26   14   20 ar
  27   16   17 ar
  28   16   21 1
  29   17   18 ar
  30   17   36 1
  31   18   19 ar
  32   18   37 1
  33   19   20 ar
  34   19   38 1
  35   20   39 1
  36   22   23 ar
  37   22   27 ar
  38   22   40 1
  39   23   24 ar
  40   24   25 ar
  41   24   41 1
  42   25   26 ar
  43   25   42 1
  44   26   27 ar

#	End of record

