#	Name: ASD01320003
#	Creating user name:	WinNT
#	Creation time:	15. 06. 2019 19:15

#	Modifying user name:	WinNT
#	Modification time:	15. 06. 2019 19:15

#	Program:	/corina/corina34_cracker 3.40 0067  02.08.2006

@<TRIPOS>MOLECULE
ASD01320003
  47   49    0    0    0
SMALL
NO_CHARGES


@<TRIPOS>ATOM
   1 C1             0.8496     1.3511     0.5111 C.ar    
   2 C2             0.6088    -0.0093     0.4659 C.ar    
   3 C3             1.6392    -0.8861     0.1659 C.ar    
   4 C4             2.9169    -0.3924    -0.0901 C.ar    
   5 C5             3.1505     0.9745    -0.0432 C.ar    
   6 C6             2.1174     1.8417     0.2573 C.ar    
   7 O7             1.4042    -2.2244     0.1219 O.3     
   8 C8             0.1368    -2.6562     0.3417 C.ar    
   9 C9            -0.8006    -2.5997    -0.6823 C.ar    
  10 C10           -2.0992    -3.0420    -0.4589 C.ar    
  11 C11           -2.4558    -3.5457     0.8079 C.ar    
  12 C12           -1.5034    -3.5957     1.8248 C.ar    
  13 C13           -0.2166    -3.1585     1.5886 C.ar    
  14 N14            3.9622    -1.2732    -0.3933 N.am    
  15 C15            5.2315    -0.9461    -0.0796 C.2     
  16 C16            6.3199    -1.9246    -0.2877 C.ar    
  17 O17            5.4813     0.1536     0.3745 O.2     
  18 C18            7.6345    -1.5887     0.0361 C.ar    
  19 C19            8.6489    -2.5107    -0.1612 C.ar    
  20 C20            8.3567    -3.7646    -0.6800 C.ar    
  21 C21            7.0540    -4.0989    -1.0019 C.ar    
  22 C22            6.0350    -3.1903    -0.8036 C.ar    
  23 O23            9.9311    -2.1875     0.1529 O.3     
  24 C24           10.9267    -3.1866    -0.0763 C.3     
  25 C25           -3.8317    -4.0179     1.0572 C.2     
  26 O26           -4.7747    -3.2838     0.8388 O.2     
  27 O27           -4.0419    -5.2631     1.5271 O.3     
  28 C28           -3.1014    -2.9839    -1.5446 C.2     
  29 O29           -4.2004    -3.4750    -1.3835 O.2     
  30 O30           -2.7954    -2.3863    -2.7123 O.3     
  31 H31            0.0443     2.0331     0.7410 H       
  32 H32           -0.3825    -0.3890     0.6647 H       
  33 H33            4.1396     1.3605    -0.2406 H       
  34 H34            2.3005     2.9055     0.2935 H       
  35 H35           -0.5207    -2.2121    -1.6507 H       
  36 H36           -1.7723    -3.9810     2.7973 H       
  37 H37            0.5180    -3.1990     2.3792 H       
  38 H38            3.7728    -2.1189    -0.8291 H       
  39 H39            7.8606    -0.6125     0.4390 H       
  40 H40            9.1497    -4.4816    -0.8332 H       
  41 H41            6.8330    -5.0760    -1.4055 H       
  42 H42            5.0187    -3.4546    -1.0561 H       
  43 H43           10.9415    -3.4488    -1.1342 H       
  44 H44           11.9032    -2.8003     0.2160 H       
  45 H45           10.6949    -4.0728     0.5145 H       
  46 H46           -4.9602    -5.5274     1.6748 H       
  47 H47           -3.4829    -2.3731    -3.3922 H       
@<TRIPOS>BOND
   1    1    2 ar
   2    1    6 ar
   3    1   31 1
   4    2    3 ar
   5    2   32 1
   6    3    4 ar
   7    3    7 1
   8    4    5 ar
   9    4   14 1
  10    5    6 ar
  11    5   33 1
  12    6   34 1
  13    7    8 1
  14    8    9 ar
  15    8   13 ar
  16    9   10 ar
  17    9   35 1
  18   10   11 ar
  19   10   28 1
  20   11   12 ar
  21   11   25 1
  22   12   13 ar
  23   12   36 1
  24   13   37 1
  25   14   15 am
  26   14   38 1
  27   15   16 1
  28   15   17 2
  29   16   18 ar
  30   16   22 ar
  31   18   19 ar
  32   18   39 1
  33   19   20 ar
  34   19   23 1
  35   20   21 ar
  36   20   40 1
  37   21   22 ar
  38   21   41 1
  39   22   42 1
  40   23   24 1
  41   24   43 1
  42   24   44 1
  43   24   45 1
  44   25   26 2
  45   25   27 1
  46   27   46 1
  47   28   29 2
  48   28   30 1
  49   30   47 1

#	End of record

