#	Name: ASD00171045
#	Creating user name:	WinNT
#	Creation time:	15. 06. 2019 18:32

#	Modifying user name:	WinNT
#	Modification time:	15. 06. 2019 18:32

#	Program:	/corina/corina34_cracker 3.40 0067  02.08.2006

@<TRIPOS>MOLECULE
ASD00171045
  59   61    0    0    0
SMALL
NO_CHARGES


@<TRIPOS>ATOM
   1 C1             3.2759     4.4293     3.4794 C.ar    
   2 C2             4.1818     3.8696     4.3616 C.ar    
   3 C3             5.0023     2.8342     3.9514 C.ar    
   4 C4             4.9193     2.3560     2.6589 C.ar    
   5 C5             4.0098     2.9161     1.7696 C.ar    
   6 C6             3.1872     3.9560     2.1851 C.ar    
   7 C7             2.1992     4.5663     1.2246 C.3     
   8 C8             0.7820     4.4000     1.7766 C.3     
   9 C9             2.5082     6.0549     1.0525 C.3     
  10 S10            3.9007     2.3094     0.1189 S.3     
  11 C11            5.2156     1.1393     0.0390 C.ar    
  12 C12            4.9402    -0.2228     0.1362 C.ar    
  13 C13            5.9566    -1.1332     0.0743 C.ar    
  14 C14            7.2772    -0.6956    -0.0872 C.ar    
  15 C15            7.5499     0.6751    -0.1846 C.ar    
  16 C16            6.5275     1.5785    -0.1270 C.ar    
  17 C17            8.3732    -1.6710    -0.1538 C.2     
  18 C18            8.1082    -2.9923    -0.0593 C.2     
  19 C19            9.1990    -3.9630    -0.1256 C.2     
  20 N20            8.9480    -5.2729     0.0686 N.am    
  21 O21           10.3340    -3.5883    -0.3562 O.2     
  22 C22            7.5686    -5.7550     0.2257 C.3     
  23 C23            7.3106    -6.8503    -0.8164 C.3     
  24 N24            8.4115    -7.8222    -0.7584 N.am    
  25 C25            9.7909    -7.3401    -0.9155 C.3     
  26 C26           10.0485    -6.2455     0.1209 C.3     
  27 C27            8.1606    -9.1321    -0.5643 C.2     
  28 C28            9.3023   -10.1003    -0.3902 C.3     
  29 O29            7.0160    -9.5317    -0.5297 O.2     
  30 N30            6.8144     3.0271    -0.2303 N.pl3   
  31 O31            7.9618     3.4125    -0.3665 O.2     
  32 O32            5.9032     3.8336    -0.1791 O.2     
  33 H33            2.6337     5.2346     3.8044 H       
  34 H34            4.2492     4.2420     5.3731 H       
  35 H35            5.7090     2.3997     4.6429 H       
  36 H36            5.5604     1.5478     2.3392 H       
  37 H37            2.2742     4.0657     0.2593 H       
  38 H38            0.0674     4.8415     1.0819 H       
  39 H39            0.5619     3.3396     1.8992 H       
  40 H40            0.7070     4.9007     2.7420 H       
  41 H41            3.5178     6.1733     0.6593 H       
  42 H42            1.7936     6.4963     0.3578 H       
  43 H43            2.4332     6.5555     2.0179 H       
  44 H44            3.9216    -0.5594     0.2611 H       
  45 H45            5.7423    -2.1890     0.1501 H       
  46 H46            8.5669     1.0166    -0.3092 H       
  47 H47            9.3910    -1.3319    -0.2784 H       
  48 H48            7.0904    -3.3313     0.0652 H       
  49 H49            7.4360    -6.1642     1.2272 H       
  50 H50            6.8730    -4.9305     0.0696 H       
  51 H51            6.3683    -7.3514    -0.5948 H       
  52 H52            7.2667    -6.4062    -1.8108 H       
  53 H53           10.4866    -8.1646    -0.7595 H       
  54 H54            9.9236    -6.9309    -1.9170 H       
  55 H55           10.9911    -5.7454    -0.1018 H       
  56 H56           10.0922    -6.6873     1.1164 H       
  57 H57           10.2471    -9.5800    -0.5476 H       
  58 H58            9.2783   -10.5127     0.6185 H       
  59 H59            9.2072   -10.9084    -1.1154 H       
@<TRIPOS>BOND
   1    1    2 ar
   2    1    6 ar
   3    1   33 1
   4    2    3 ar
   5    2   34 1
   6    3    4 ar
   7    3   35 1
   8    4    5 ar
   9    4   36 1
  10    5    6 ar
  11    5   10 1
  12    6    7 1
  13    7    8 1
  14    7    9 1
  15    7   37 1
  16    8   38 1
  17    8   39 1
  18    8   40 1
  19    9   41 1
  20    9   42 1
  21    9   43 1
  22   10   11 1
  23   11   12 ar
  24   11   16 ar
  25   12   13 ar
  26   12   44 1
  27   13   14 ar
  28   13   45 1
  29   14   15 ar
  30   14   17 1
  31   15   16 ar
  32   15   46 1
  33   16   30 1
  34   17   18 2
  35   17   47 1
  36   18   19 1
  37   18   48 1
  38   19   20 am
  39   19   21 2
  40   20   22 1
  41   20   26 1
  42   22   23 1
  43   22   49 1
  44   22   50 1
  45   23   24 1
  46   23   51 1
  47   23   52 1
  48   24   25 1
  49   24   27 am
  50   25   26 1
  51   25   53 1
  52   25   54 1
  53   26   55 1
  54   26   56 1
  55   27   28 1
  56   27   29 2
  57   28   57 1
  58   28   58 1
  59   28   59 1
  60   30   31 2
  61   30   32 2

#	End of record

