#	Name: ASD01028734
#	Creating user name:	WinNT
#	Creation time:	15. 06. 2019 18:58

#	Modifying user name:	WinNT
#	Modification time:	15. 06. 2019 18:58

#	Program:	/corina/corina34_cracker 3.40 0067  02.08.2006

@<TRIPOS>MOLECULE
ASD01028734
  51   53    0    0    0
SMALL
NO_CHARGES


@<TRIPOS>ATOM
   1 C1            -0.0184     1.5028     0.0103 C.2     
   2 C2             0.0021    -0.0041     0.0020 C.3     
   3 O3             1.0197     2.1211     0.0037 O.2     
   4 O4            -1.1898     2.1580     0.0194 O.3     
   5 N5             5.3262    -1.8059    -0.1105 N.ar    
   6 C6             5.9885    -2.0314     0.9973 C.ar    
   7 C7             5.4061    -1.8359     2.2537 C.ar    
   8 C8             4.1111    -1.3979     2.3435 C.ar    
   9 C9             3.4076    -1.1583     1.1489 C.ar    
  10 C10            2.0773    -0.7087     1.1628 C.ar    
  11 C11            1.4295    -0.4870    -0.0142 C.ar    
  12 C12            2.0690    -0.7013    -1.2333 C.ar    
  13 C13            3.3573    -1.1376    -1.2837 C.ar    
  14 C14            4.0600    -1.3774    -0.0901 C.ar    
  15 O15            6.1226    -2.0803     3.3824 O.3     
  16 C16            7.4665    -2.5353     3.2119 C.3     
  17 O17            7.4331    -3.8173     5.2629 O.3     
  18 C18            8.1084    -2.7547     4.5833 C.3     
  19 C19            9.5824    -3.1296     4.4043 C.3     
  20 O20           10.1459    -3.4416     5.6819 O.3     
  21 C21            9.4705    -4.5042     6.3615 C.3     
  22 C22            7.9965    -4.1293     6.5405 C.3     
  23 C23           -1.1335     3.6089     0.0270 C.3     
  24 C24           -0.3989     4.0974    -1.2231 C.3     
  25 C25           -2.5551     4.1744     0.0369 C.3     
  26 C26           -0.3871     4.0838     1.2754 C.3     
  27 H27           -0.4983    -0.3791     0.8948 H       
  28 H28           -0.5153    -0.3696    -0.8850 H       
  29 H29            7.0099    -2.3773     0.9388 H       
  30 H30            3.6434    -1.2412     3.3042 H       
  31 H31            1.5710    -0.5394     2.1016 H       
  32 H32            1.5337    -0.5185    -2.1533 H       
  33 H33            3.8378    -1.2992    -2.2373 H       
  34 H34            7.4648    -3.4736     2.6572 H       
  35 H35            8.0359    -1.7877     2.6596 H       
  36 H36            8.0330    -1.8401     5.1714 H       
  37 H37            9.6607    -3.9978     3.7498 H       
  38 H38           10.1209    -2.2905     3.9638 H       
  39 H39            9.5449    -5.4186     5.7729 H       
  40 H40            9.9278    -4.6605     7.3385 H       
  41 H41            7.9183    -3.2612     7.1950 H       
  42 H42            7.4580    -4.9684     6.9810 H       
  43 H43           -0.9307     3.7591    -2.1124 H       
  44 H44           -0.3567     5.1865    -1.2173 H       
  45 H45            0.6139     3.6945    -1.2301 H       
  46 H46           -3.0784     3.8265     0.9275 H       
  47 H47           -2.5128     5.2636     0.0426 H       
  48 H48           -3.0869     3.8361    -0.8525 H       
  49 H49            0.6257     3.6809     1.2684 H       
  50 H50           -0.3448     5.1730     1.2811 H       
  51 H51           -0.9104     3.7358     2.1659 H       
@<TRIPOS>BOND
   1    1    2 1
   2    1    3 2
   3    1    4 1
   4    2   11 1
   5    2   27 1
   6    2   28 1
   7    4   23 1
   8    5    6 ar
   9    5   14 ar
  10    6    7 ar
  11    6   29 1
  12    7    8 ar
  13    7   15 1
  14    8    9 ar
  15    8   30 1
  16    9   10 ar
  17    9   14 ar
  18   10   11 ar
  19   10   31 1
  20   11   12 ar
  21   12   13 ar
  22   12   32 1
  23   13   14 ar
  24   13   33 1
  25   15   16 1
  26   16   18 1
  27   16   34 1
  28   16   35 1
  29   17   18 1
  30   17   22 1
  31   18   19 1
  32   18   36 1
  33   19   20 1
  34   19   37 1
  35   19   38 1
  36   20   21 1
  37   21   22 1
  38   21   39 1
  39   21   40 1
  40   22   41 1
  41   22   42 1
  42   23   24 1
  43   23   26 1
  44   23   25 1
  45   24   43 1
  46   24   44 1
  47   24   45 1
  48   25   46 1
  49   25   47 1
  50   25   48 1
  51   26   49 1
  52   26   50 1
  53   26   51 1

#	End of record

