#	Name: ASD03492002
#	Creating user name:	WinNT
#	Creation time:	15. 06. 2019 20:42

#	Modifying user name:	WinNT
#	Modification time:	15. 06. 2019 20:42

#	Program:	/corina/corina34_cracker 3.40 0067  02.08.2006

@<TRIPOS>MOLECULE
ASD03492002
  46   48    0    0    0
SMALL
NO_CHARGES


@<TRIPOS>ATOM
   1 C1            -0.0125     1.3747     0.0306 C.ar    
   2 C2            -1.0663     1.7997     0.8239 C.ar    
   3 C3            -2.2580     1.0971     0.8260 C.ar    
   4 C4            -2.3964    -0.0336     0.0329 C.ar    
   5 C5            -1.3381    -0.4566    -0.7609 C.ar    
   6 C6            -0.1519     0.2508    -0.7642 C.ar    
   7 Cl7            1.4820     2.2578     0.0285 Cl      
   8 F8            -0.9297     2.9002     1.5956 F       
   9 N9            -3.6009    -0.7469     0.0334 N.am    
  10 C10           -4.7725    -0.0910     0.1502 C.2     
  11 N11           -5.9351    -0.7662     0.0566 N.am    
  12 O12           -4.7805     1.1099     0.3402 O.2     
  13 C13           -7.1433    -0.0898     0.1771 C.2     
  14 S14           -7.3020     1.5915     0.4441 S.3     
  15 C15           -9.0569     1.4373     0.4399 C.2     
  16 C16           -9.3590     0.1531     0.2408 C.2     
  17 N17           -8.3139    -0.6409     0.0979 N.2     
  18 C18          -10.7783    -0.3495     0.1786 C.3     
  19 C19          -10.9948    -1.1047    -1.1343 C.3     
  20 O20          -12.3689    -1.4805    -1.2466 O.3     
  21 C21          -12.6800    -2.1954    -2.4443 C.3     
  22 C22          -14.1472    -2.5392    -2.4574 C.ar    
  23 C23          -15.0574    -1.6632    -3.0188 C.ar    
  24 C24          -16.4032    -1.9786    -3.0307 C.ar    
  25 C25          -16.8388    -3.1702    -2.4817 C.ar    
  26 C26          -15.9285    -4.0465    -1.9212 C.ar    
  27 C27          -14.5821    -3.7331    -1.9131 C.ar    
  28 N28          -11.0279    -1.2528     1.3099 N.3     
  29 H29           -3.0794     1.4276     1.4444 H       
  30 H30           -1.4440    -1.3363    -1.3783 H       
  31 H31            0.6707    -0.0786    -1.3816 H       
  32 H32           -3.5924    -1.7132    -0.0504 H       
  33 H33           -5.9287    -1.7243    -0.0950 H       
  34 H34           -9.7647     2.2417     0.5752 H       
  35 H35          -11.4654     0.4951     0.2296 H       
  36 H36          -10.7243    -0.4619    -1.9720 H       
  37 H37          -10.3715    -1.9988    -1.1463 H       
  38 H38          -12.4444    -1.5752    -3.3091 H       
  39 H39          -12.0916    -3.1121    -2.4834 H       
  40 H40          -14.7170    -0.7323    -3.4477 H       
  41 H41          -17.1144    -1.2939    -3.4687 H       
  42 H42          -17.8903    -3.4162    -2.4905 H       
  43 H43          -16.2688    -4.9773    -1.4919 H       
  44 H44          -13.8709    -4.4178    -1.4751 H       
  45 H45          -10.4029    -2.0445     1.2852 H       
  46 H46          -10.9544    -0.7613     2.1881 H       
@<TRIPOS>BOND
   1    1    2 ar
   2    1    7 1
   3    1    6 ar
   4    2    3 ar
   5    2    8 1
   6    3    4 ar
   7    3   29 1
   8    4    5 ar
   9    4    9 1
  10    5    6 ar
  11    5   30 1
  12    6   31 1
  13    9   10 am
  14    9   32 1
  15   10   11 am
  16   10   12 2
  17   11   13 1
  18   11   33 1
  19   13   14 1
  20   13   17 2
  21   14   15 1
  22   15   16 2
  23   15   34 1
  24   16   17 1
  25   16   18 1
  26   18   19 1
  27   18   28 1
  28   18   35 1
  29   19   20 1
  30   19   36 1
  31   19   37 1
  32   20   21 1
  33   21   22 1
  34   21   38 1
  35   21   39 1
  36   22   23 ar
  37   22   27 ar
  38   23   24 ar
  39   23   40 1
  40   24   25 ar
  41   24   41 1
  42   25   26 ar
  43   25   42 1
  44   26   27 ar
  45   26   43 1
  46   27   44 1
  47   28   45 1
  48   28   46 1

#	End of record

