#	Name: ASD00845181
#	Creating user name:	WinNT
#	Creation time:	15. 06. 2019 18:51

#	Modifying user name:	WinNT
#	Modification time:	15. 06. 2019 18:51

#	Program:	/corina/corina34_cracker 3.40 0067  02.08.2006

@<TRIPOS>MOLECULE
ASD00845181
  98  103    0    0    0
SMALL
NO_CHARGES


@<TRIPOS>ATOM
   1 C1            -0.0167     1.3829     0.0096 C.ar    
   2 C2             0.0021    -0.0041     0.0020 C.ar    
   3 C3             1.2143    -0.6791    -0.0132 C.ar    
   4 C4             2.3989     0.0312    -0.0207 C.ar    
   5 C5             2.3774     1.4139    -0.0126 C.ar    
   6 C6             1.1710     2.0888     0.0021 C.ar    
   7 C7             1.2384    -2.1858    -0.0210 C.3     
   8 C8             0.4954    -2.7222    -1.2260 C.2     
   9 O9             2.6066    -2.6718    -0.0089 O.3     
  10 C10            3.3986    -2.2936    -1.0299 C.2     
  11 N11            4.6795    -2.7098    -1.0791 N.am    
  12 O12            2.9584    -1.5772    -1.9071 O.2     
  13 C13            5.5560    -2.3055    -2.1868 C.3     
  14 C14            6.1676    -3.5616    -2.8152 C.3     
  15 C15            6.8659    -4.3825    -1.7286 C.3     
  16 C16            5.8415    -4.8177    -0.6783 C.3     
  17 C17            5.2278    -3.5713    -0.0227 C.3     
  18 C18            7.5077    -5.6204    -2.3584 C.3     
  19 C19            8.5342    -5.1866    -3.4084 C.3     
  20 C20            9.2160    -6.4266    -3.9911 C.3     
  21 N21            9.8770    -7.1748    -2.9142 N.3     
  22 C22            8.9046    -7.6425    -1.9181 C.3     
  23 C23            8.2135    -6.4387    -1.2736 C.3     
  24 C24           10.6578    -8.2958    -3.4544 C.3     
  25 O25            0.7747    -2.5266    -2.3899 O.2     
  26 N26           -0.5308    -3.4561    -0.7646 N.am    
  27 C27            0.4677    -2.7343     1.1584 C.ar    
  28 C28           -0.5778    -3.4853     0.6264 C.ar    
  29 C29            0.6314    -2.6120     2.5149 C.ar    
  30 C30           -0.2617    -3.2488     3.3840 C.ar    
  31 C31           -1.3150    -4.0053     2.8564 C.ar    
  32 C32           -1.4681    -4.1216     1.4914 C.ar    
  33 F33           -2.1826    -4.6239     3.6870 F       
  34 C34           -0.9796    -5.8517    -2.0429 C.ar    
  35 C35            0.2002    -6.0085    -2.7561 C.ar    
  36 C36           -1.6521    -6.9604    -1.5650 C.ar    
  37 C37           -1.1514    -8.2272    -1.7955 C.ar    
  38 C38            0.0284    -8.3893    -2.5084 C.ar    
  39 C39            0.7045    -7.2789    -2.9891 C.ar    
  40 O40            0.5202    -9.6358    -2.7352 O.3     
  41 O41            0.8607    -4.9178    -3.2262 O.3     
  42 C42           -0.2289   -10.7340    -2.2109 C.3     
  43 C43            2.0689    -5.1539    -3.9519 C.3     
  44 C44            2.6656    -3.8175    -4.3977 C.3     
  45 C45           11.5244    -8.8951    -2.3450 C.3     
  46 O46           -1.1648    -0.7006     0.0099 O.3     
  47 C47           -2.3744     0.0601     0.0260 C.3     
  48 C48           -3.5740    -0.8895     0.0328 C.3     
  49 F49           -3.5417    -1.6899    -1.1142 F       
  50 F50           -3.5190    -1.7022     1.1702 F       
  51 S51           -1.6173    -4.2372    -1.7401 S.o2    
  52 O52           -2.7976    -4.4103    -0.9681 O.2     
  53 O53           -1.5974    -3.5574    -2.9878 O.2     
  54 C54           -0.0993    -3.1278     4.8016 C.1     
  55 N55            0.0296    -3.0319     5.9262 N.1     
  56 H56           -0.9590     1.9106     0.0170 H       
  57 H57            3.3426    -0.4937    -0.0325 H       
  58 H58            3.3047     1.9675    -0.0178 H       
  59 H59            1.1569     3.1687     0.0084 H       
  60 H60            4.9741    -1.7685    -2.9359 H       
  61 H61            6.3505    -1.6625    -1.8082 H       
  62 H62            5.3799    -4.1598    -3.2733 H       
  63 H63            6.8934    -3.2718    -3.5751 H       
  64 H64            7.6370    -3.7755    -1.2542 H       
  65 H65            5.0568    -5.4040    -1.1564 H       
  66 H66            6.3352    -5.4219     0.0829 H       
  67 H67            5.9970    -3.0339     0.5320 H       
  68 H68            4.4280    -3.8709     0.6546 H       
  69 H69            6.7373    -6.2292    -2.8318 H       
  70 H70            8.0305    -4.6399    -4.2056 H       
  71 H71            9.2822    -4.5450    -2.9427 H       
  72 H72            8.4692    -7.0610    -4.4687 H       
  73 H73            9.9576    -6.1204    -4.7288 H       
  74 H74            8.1594    -8.2712    -2.4054 H       
  75 H75            9.4201    -8.2194    -1.1503 H       
  76 H76            8.9565    -5.8169    -0.7743 H       
  77 H77            7.4807    -6.7866    -0.5455 H       
  78 H78            9.9805    -9.0585    -3.8385 H       
  79 H79           11.2970    -7.9377    -4.2614 H       
  80 H80            1.4477    -2.0262     2.9111 H       
  81 H81           -2.2823    -4.7066     1.0898 H       
  82 H82           -2.5702    -6.8363    -1.0101 H       
  83 H83           -1.6783    -9.0921    -1.4204 H       
  84 H84            1.6225    -7.4030    -3.5443 H       
  85 H85           -0.3011   -10.6403    -1.1274 H       
  86 H86           -1.2295   -10.7307    -2.6433 H       
  87 H87            0.2725   -11.6687    -2.4622 H       
  88 H88            2.7813    -5.6745    -3.3120 H       
  89 H89            1.8529    -5.7656    -4.8279 H       
  90 H90            1.9531    -3.2969    -5.0376 H       
  91 H91            2.8816    -3.2058    -3.5217 H       
  92 H92            3.5871    -3.9976    -4.9512 H       
  93 H93           12.2017    -8.1323    -1.9609 H       
  94 H94           10.8852    -9.2531    -1.5380 H       
  95 H95           12.1038    -9.7268    -2.7459 H       
  96 H96           -2.3995     0.6837     0.9196 H       
  97 H97           -2.4172     0.6932    -0.8603 H       
  98 H98           -4.4966    -0.3093     0.0451 H       
@<TRIPOS>BOND
   1    1    2 ar
   2    1    6 ar
   3    1   56 1
   4    2    3 ar
   5    2   46 1
   6    3    4 ar
   7    3    7 1
   8    4    5 ar
   9    4   57 1
  10    5    6 ar
  11    5   58 1
  12    6   59 1
  13    7    8 1
  14    7    9 1
  15    7   27 1
  16    8   25 2
  17    8   26 am
  18    9   10 1
  19   10   11 am
  20   10   12 2
  21   11   13 1
  22   11   17 1
  23   13   14 1
  24   13   60 1
  25   13   61 1
  26   14   15 1
  27   14   62 1
  28   14   63 1
  29   15   16 1
  30   15   18 1
  31   15   64 1
  32   16   17 1
  33   16   65 1
  34   16   66 1
  35   17   67 1
  36   17   68 1
  37   18   19 1
  38   18   23 1
  39   18   69 1
  40   19   20 1
  41   19   70 1
  42   19   71 1
  43   20   21 1
  44   20   72 1
  45   20   73 1
  46   21   22 1
  47   21   24 1
  48   22   23 1
  49   22   74 1
  50   22   75 1
  51   23   76 1
  52   23   77 1
  53   24   45 1
  54   24   78 1
  55   24   79 1
  56   26   51 am
  57   26   28 1
  58   27   28 ar
  59   27   29 ar
  60   28   32 ar
  61   29   30 ar
  62   29   80 1
  63   30   31 ar
  64   30   54 1
  65   31   32 ar
  66   31   33 1
  67   32   81 1
  68   34   35 ar
  69   34   36 ar
  70   34   51 1
  71   35   41 1
  72   35   39 ar
  73   36   37 ar
  74   36   82 1
  75   37   38 ar
  76   37   83 1
  77   38   39 ar
  78   38   40 1
  79   39   84 1
  80   40   42 1
  81   41   43 1
  82   42   85 1
  83   42   86 1
  84   42   87 1
  85   43   44 1
  86   43   88 1
  87   43   89 1
  88   44   90 1
  89   44   91 1
  90   44   92 1
  91   45   93 1
  92   45   94 1
  93   45   95 1
  94   46   47 1
  95   47   48 1
  96   47   96 1
  97   47   97 1
  98   48   49 1
  99   48   50 1
 100   48   98 1
 101   51   52 2
 102   51   53 2
 103   54   55 3

#	End of record

