#	Name: ASD09740041
#	Creating user name:	WinNT
#	Creation time:	15. 06. 2019 21:22

#	Modifying user name:	WinNT
#	Modification time:	15. 06. 2019 21:22

#	Program:	/corina/corina34_cracker 3.40 0067  02.08.2006

@<TRIPOS>MOLECULE
ASD09740041
  51   54    0    0    0
SMALL
NO_CHARGES


@<TRIPOS>ATOM
   1 N1            -0.0144     1.2085     0.0087 N.2     
   2 O2             0.0021    -0.0041     0.0020 O.3     
   3 C3             1.2060     1.6802    -0.0004 C.2     
   4 N4             2.0460     0.6242    -0.0141 N.2     
   5 C5             1.2701    -0.4440    -0.0125 C.2     
   6 C6             1.7126    -1.8533    -0.0238 C.ar    
   7 C7             1.5949     3.1128     0.0028 C.ar    
   8 C8             2.9403     3.4691    -0.0085 C.ar    
   9 C9             3.2968     4.8027    -0.0058 C.ar    
  10 C10            2.3204     5.7803     0.0086 C.ar    
  11 C11            0.9785     5.4333     0.0203 C.ar    
  12 C12            0.6115     4.1030     0.0114 C.ar    
  13 C13            3.0779    -2.1575    -0.0380 C.ar    
  14 C14            0.7707    -2.8791    -0.0146 C.ar    
  15 C15            1.1939    -4.2069    -0.0254 C.ar    
  16 C16            2.5660    -4.5004    -0.0455 C.ar    
  17 C17            3.4962    -3.4697    -0.0491 C.ar    
  18 O18            2.9833    -5.7905    -0.0556 O.3     
  19 C19            4.3943    -6.0157    -0.0759 C.3     
  20 C20            4.6704    -7.5206    -0.0848 C.3     
  21 C21           -0.2588     6.3056     0.0371 C.3     
  22 C22           -1.4045     5.3728     0.4839 C.3     
  23 C23           -0.8975     3.9868     0.0273 C.3     
  24 N24           -0.0938     7.4058     0.9963 N.3     
  25 C25            0.5797     8.5522     0.3717 C.3     
  26 C26            0.7332     9.6754     1.3992 C.3     
  27 O27            1.6073     9.2476     2.4456 O.3     
  28 C28            0.2321    -5.2678    -0.0156 C.1     
  29 N29           -0.5309    -6.1094    -0.0079 N.1     
  30 H30            3.7031     2.7045    -0.0191 H       
  31 H31            4.3400     5.0822    -0.0146 H       
  32 H32            2.6049     6.8221     0.0111 H       
  33 H33            3.8067    -1.3605    -0.0406 H       
  34 H34           -0.2839    -2.6464     0.0011 H       
  35 H35            4.5517    -3.6978    -0.0645 H       
  36 H36            4.8217    -5.5626    -0.9704 H       
  37 H37            4.8464    -5.5685     0.8094 H       
  38 H38            4.2430    -7.9737     0.8097 H       
  39 H39            4.2183    -7.9677    -0.9701 H       
  40 H40            5.7467    -7.6924    -0.1003 H       
  41 H41           -0.4581     6.6986    -0.9599 H       
  42 H42           -1.5310     5.4052     1.5661 H       
  43 H43           -2.3341     5.6300    -0.0239 H       
  44 H44           -1.2702     3.7577    -0.9710 H       
  45 H45           -1.2098     3.2181     0.7342 H       
  46 H46           -0.9819     7.6787     1.3899 H       
  47 H47            1.5643     8.2465     0.0178 H       
  48 H48           -0.0145     8.9084    -0.4698 H       
  49 H49            1.1518    10.5571     0.9139 H       
  50 H50           -0.2427     9.9203     1.8184 H       
  51 H51            1.7509     9.9112     3.1342 H       
@<TRIPOS>BOND
   1    1    2 1
   2    1    3 2
   3    2    5 1
   4    3    4 1
   5    3    7 1
   6    4    5 2
   7    5    6 1
   8    6   13 ar
   9    6   14 ar
  10    7    8 ar
  11    7   12 ar
  12    8    9 ar
  13    8   30 1
  14    9   10 ar
  15    9   31 1
  16   10   11 ar
  17   10   32 1
  18   11   12 ar
  19   11   21 1
  20   12   23 1
  21   13   17 ar
  22   13   33 1
  23   14   15 ar
  24   14   34 1
  25   15   16 ar
  26   15   28 1
  27   16   17 ar
  28   16   18 1
  29   17   35 1
  30   18   19 1
  31   19   20 1
  32   19   36 1
  33   19   37 1
  34   20   38 1
  35   20   39 1
  36   20   40 1
  37   21   22 1
  38   21   24 1
  39   21   41 1
  40   22   23 1
  41   22   42 1
  42   22   43 1
  43   23   44 1
  44   23   45 1
  45   24   25 1
  46   24   46 1
  47   25   26 1
  48   25   47 1
  49   25   48 1
  50   26   27 1
  51   26   49 1
  52   26   50 1
  53   27   51 1
  54   28   29 3

#	End of record

