#	Name: ASD01941030
#	Creating user name:	WinNT
#	Creation time:	15. 06. 2019 20:13

#	Modifying user name:	WinNT
#	Modification time:	15. 06. 2019 20:13

#	Program:	/corina/corina34_cracker 3.40 0067  02.08.2006

@<TRIPOS>MOLECULE
ASD01941030
  50   54    0    0    0
SMALL
NO_CHARGES


@<TRIPOS>ATOM
   1 N1            -0.0581     1.2519    -0.0764 N.am    
   2 C2             0.0011    -0.0832     0.0444 C.2     
   3 N3            -1.0940    -0.8629     0.0830 N.am    
   4 C4            -2.3546    -0.3043    -0.0026 C.2     
   5 C5            -2.4702     1.1058    -0.1313 C.2     
   6 C6            -1.2400     1.9006    -0.1618 C.2     
   7 C7            -3.5019    -1.0690     0.0322 C.2     
   8 C8            -4.7465    -0.4374    -0.0599 C.2     
   9 N9            -4.8411     0.8983    -0.1814 N.am    
  10 C10           -3.7311     1.6870    -0.2185 C.2     
  11 C11           -0.9555    -2.2508     0.2103 C.ar    
  12 C12           -1.3608    -2.8864     1.3765 C.ar    
  13 C13           -1.2234    -4.2552     1.4988 C.ar    
  14 C14           -0.6827    -4.9927     0.4615 C.ar    
  15 C15           -0.2776    -4.3627    -0.7009 C.ar    
  16 C16           -0.4177    -2.9949    -0.8315 C.ar    
  17 O17           -5.7644    -1.1105    -0.0299 O.2     
  18 N18           -3.8556     3.0435    -0.3427 N.pl3   
  19 C19           -3.8035     3.6376    -1.6078 C.ar    
  20 C20           -3.8181     5.0213    -1.7278 C.ar    
  21 C21           -3.7666     5.6052    -2.9783 C.ar    
  22 C22           -3.7011     4.8131    -4.1109 C.ar    
  23 C23           -3.6865     3.4345    -3.9944 C.ar    
  24 C24           -3.7315     2.8452    -2.7462 C.ar    
  25 O25            1.0931    -0.6114     0.1221 O.2     
  26 C26            1.1866     2.0238    -0.1106 C.3     
  27 O27           -1.2814     3.1120    -0.2705 O.2     
  28 C28            2.1268     1.7961    -1.2959 C.3     
  29 C29            1.3242     3.0948    -1.1945 C.3     
  30 C30           -6.1652     1.5182    -0.2752 C.3     
  31 Br31          -3.6321     5.6164    -5.8215 Br      
  32 H32           -3.4400    -2.1428     0.1290 H       
  33 H33           -1.7829    -2.3109     2.1871 H       
  34 H34           -1.5381    -4.7501     2.4057 H       
  35 H35           -0.5762    -6.0630     0.5596 H       
  36 H36            0.1450    -4.9413    -1.5090 H       
  37 H37           -0.1015    -2.5034    -1.7398 H       
  38 H38           -3.9799     3.5934     0.4466 H       
  39 H39           -3.8699     5.6400    -0.8441 H       
  40 H40           -3.7779     6.6810    -3.0722 H       
  41 H41           -3.6354     2.8187    -4.8802 H       
  42 H42           -3.7201     1.7690    -2.6558 H       
  43 H43            1.6400     2.2279     0.8594 H       
  44 H44            3.1987     1.8508    -1.1058 H       
  45 H45            1.8193     1.0720    -2.0504 H       
  46 H46            0.4887     3.2250    -1.8823 H       
  47 H47            1.8681     4.0038    -0.9377 H       
  48 H48           -6.9281     0.7408    -0.3187 H       
  49 H49           -6.3354     2.1457     0.5997 H       
  50 H50           -6.2173     2.1292    -1.1763 H       
@<TRIPOS>BOND
   1    1    2 am
   2    1   26 1
   3    1    6 am
   4    2    3 am
   5    2   25 2
   6    3    4 1
   7    3   11 1
   8    4    5 1
   9    4    7 2
  10    5    6 1
  11    5   10 2
  12    6   27 2
  13    7    8 1
  14    7   32 1
  15    8    9 am
  16    8   17 2
  17    9   10 1
  18    9   30 1
  19   10   18 1
  20   11   12 ar
  21   11   16 ar
  22   12   13 ar
  23   12   33 1
  24   13   14 ar
  25   13   34 1
  26   14   15 ar
  27   14   35 1
  28   15   16 ar
  29   15   36 1
  30   16   37 1
  31   18   19 1
  32   18   38 1
  33   19   20 ar
  34   19   24 ar
  35   20   21 ar
  36   20   39 1
  37   21   22 ar
  38   21   40 1
  39   22   23 ar
  40   22   31 1
  41   23   24 ar
  42   23   41 1
  43   24   42 1
  44   26   28 1
  45   26   29 1
  46   26   43 1
  47   28   29 1
  48   28   44 1
  49   28   45 1
  50   29   46 1
  51   29   47 1
  52   30   48 1
  53   30   49 1
  54   30   50 1

#	End of record

