#	Name: ASD04590423
#	Creating user name:	WinNT
#	Creation time:	15. 06. 2019 20:50

#	Modifying user name:	WinNT
#	Modification time:	15. 06. 2019 20:50

#	Program:	/corina/corina34_cracker 3.40 0067  02.08.2006

@<TRIPOS>MOLECULE
ASD04590423
  58   62    0    0    0
SMALL
NO_CHARGES


@<TRIPOS>ATOM
   1 C1            -0.0168     1.3876     0.0097 C.ar    
   2 C2             0.0021    -0.0041     0.0020 C.ar    
   3 C3             2.4052     0.0260    -0.0207 C.ar    
   4 C4             2.3773     1.4317    -0.0129 C.ar    
   5 C5             1.1626     2.1017     0.0022 C.ar    
   6 N6             3.7079    -0.3491    -0.0356 N.2     
   7 C7             4.4734     0.7155    -0.0374 C.2     
   8 N8             3.6984     1.8435    -0.0238 N.pl3   
   9 C9             5.9508     0.6997    -0.0511 C.2     
  10 C10            6.7697    -0.4531    -0.0648 C.2     
  11 C11            8.0614    -0.0422    -0.0750 C.2     
  12 N12            8.0664     1.3167    -0.0682 N.pl3   
  13 N13            6.7373     1.7581    -0.0585 N.2     
  14 N14            6.3245    -1.7849    -0.0666 N.am    
  15 C15            7.2178    -2.7940    -0.0804 C.2     
  16 O16            8.4094    -2.5512    -0.0912 O.2     
  17 C17            6.7501    -4.1932    -0.0823 C.ar    
  18 C18            1.2021    -0.6867    -0.0131 C.ar    
  19 C19            6.1014    -6.1771     1.1150 C.ar    
  20 C20            5.8718    -6.8236    -0.0859 C.ar    
  21 C21            6.0828    -6.1676    -1.2851 C.ar    
  22 C22            6.5205    -4.8565    -1.2925 C.ar    
  23 C23            6.5392    -4.8661     1.1260 C.ar    
  24 F24            6.7633    -4.2366     2.3002 F       
  25 F25            6.7256    -4.2174    -2.4650 F       
  26 O26           -1.1686    -0.6957     0.0099 O.3     
  27 C27           -2.3747     0.0705     0.0260 C.3     
  28 C28           -3.5787    -0.8736     0.0329 C.3     
  29 C29           -4.8700    -0.0533     0.0501 C.3     
  30 C30           -6.0740    -0.9917    -0.0688 C.3     
  31 C31           -4.9657     0.7228     1.3666 C.3     
  32 C32           -6.2875     1.4932     1.4039 C.3     
  33 N33           -7.4080     0.5513     1.2876 N.3     
  34 C34           -7.3637    -0.1716     0.0102 C.3     
  35 H35           -0.9612     1.9114     0.0170 H       
  36 H36            1.1409     3.1815     0.0079 H       
  37 H37            4.0157     2.7601    -0.0223 H       
  38 H38            8.9319    -0.6813    -0.0866 H       
  39 H39            8.8540     1.8829    -0.0723 H       
  40 H40            5.3741    -1.9786    -0.0580 H       
  41 H41            1.2115    -1.7666    -0.0186 H       
  42 H42            5.9341    -6.6967     2.0468 H       
  43 H43            5.5301    -7.8481    -0.0874 H       
  44 H44            5.9014    -6.6800    -2.2184 H       
  45 H45           -2.3970     0.6943     0.9196 H       
  46 H46           -2.4147     0.7038    -0.8603 H       
  47 H47           -3.5563    -1.4974    -0.8608 H       
  48 H48           -3.5387    -1.5069     0.9191 H       
  49 H49           -4.8688     0.6455    -0.7865 H       
  50 H50           -6.0340    -1.5158    -1.0237 H       
  51 H51           -6.0528    -1.7159     0.7456 H       
  52 H52           -4.9271     0.0256     2.2036 H       
  53 H53           -4.1339     1.4236     1.4372 H       
  54 H54           -6.3652     2.0355     2.3463 H       
  55 H55           -6.3195     2.1999     0.5747 H       
  56 H56           -7.4231    -0.0906     2.0660 H       
  57 H57           -7.3906     0.5429    -0.8126 H       
  58 H58           -8.2230    -0.8384    -0.0598 H       
@<TRIPOS>BOND
   1    1    2 ar
   2    1    5 ar
   3    1   35 1
   4    2   18 ar
   5    2   26 1
   6    3    4 ar
   7    3    6 1
   8    3   18 ar
   9    4    5 ar
  10    4    8 1
  11    5   36 1
  12    6    7 2
  13    7    8 1
  14    7    9 1
  15    8   37 1
  16    9   10 1
  17    9   13 2
  18   10   11 2
  19   10   14 1
  20   11   12 1
  21   11   38 1
  22   12   13 1
  23   12   39 1
  24   14   15 am
  25   14   40 1
  26   15   16 2
  27   15   17 1
  28   17   23 ar
  29   17   22 ar
  30   18   41 1
  31   19   20 ar
  32   19   23 ar
  33   19   42 1
  34   20   21 ar
  35   20   43 1
  36   21   22 ar
  37   21   44 1
  38   22   25 1
  39   23   24 1
  40   26   27 1
  41   27   28 1
  42   27   45 1
  43   27   46 1
  44   28   29 1
  45   28   47 1
  46   28   48 1
  47   29   30 1
  48   29   31 1
  49   29   49 1
  50   30   34 1
  51   30   50 1
  52   30   51 1
  53   31   32 1
  54   31   52 1
  55   31   53 1
  56   32   33 1
  57   32   54 1
  58   32   55 1
  59   33   34 1
  60   33   56 1
  61   34   57 1
  62   34   58 1

#	End of record

