#	Name: ASD01910657
#	Creating user name:	WinNT
#	Creation time:	15. 06. 2019 19:56

#	Modifying user name:	WinNT
#	Modification time:	15. 06. 2019 19:56

#	Program:	/corina/corina34_cracker 3.40 0067  02.08.2006

@<TRIPOS>MOLECULE
ASD01910657
  32   34    0    0    0
SMALL
NO_CHARGES


@<TRIPOS>ATOM
   1 C1            -0.0167     1.3821     0.0096 C.ar    
   2 C2             0.0021    -0.0041     0.0020 C.ar    
   3 C3             1.2086    -0.6867    -0.0132 C.ar    
   4 C4             2.3980     0.0101    -0.0209 C.ar    
   5 C5             2.3858     1.4079    -0.0133 C.ar    
   6 C6             1.1659     2.0904     0.0022 C.ar    
   7 C7             3.6178     2.1377    -0.0211 C.1     
   8 C8             4.6279     2.7361    -0.0276 C.1     
   9 C9             5.8600     3.4659    -0.0355 C.ar    
  10 C10            5.8433     4.8658    -0.0278 C.ar    
  11 C11            7.0183     5.5582    -0.0352 C.ar    
  12 C12            8.2368     4.8690    -0.0497 C.ar    
  13 C13            8.2558     3.4740    -0.0584 C.ar    
  14 C14            7.0793     2.7787    -0.0451 C.ar    
  15 C15            7.0267     7.0641    -0.0283 C.3     
  16 C16            8.2261     7.5734     0.7677 C.3     
  17 N17            9.4625     6.9438     0.3123 N.am    
  18 C18            9.4922     5.6471    -0.0546 C.2     
  19 O19           10.5390     5.1247    -0.3857 O.2     
  20 F20           -1.1603    -0.6926     0.0099 F       
  21 H21           -0.9599     1.9082     0.0170 H       
  22 H22            1.2167    -1.7666    -0.0187 H       
  23 H23            3.3373    -0.5228    -0.0324 H       
  24 H24            1.1499     3.1703     0.0077 H       
  25 H25            4.9025     5.3961    -0.0165 H       
  26 H26            9.1974     2.9451    -0.0703 H       
  27 H27            7.0903     1.6988    -0.0517 H       
  28 H28            7.0902     7.4305    -1.0530 H       
  29 H29            6.1071     7.4292     0.4290 H       
  30 H30            8.3068     8.6531     0.6418 H       
  31 H31            8.0770     7.3472     1.8235 H       
  32 H32           10.2774     7.4684     0.2729 H       
@<TRIPOS>BOND
   1    1    2 ar
   2    1    6 ar
   3    1   21 1
   4    2    3 ar
   5    2   20 1
   6    3    4 ar
   7    3   22 1
   8    4    5 ar
   9    4   23 1
  10    5    6 ar
  11    5    7 1
  12    6   24 1
  13    7    8 3
  14    8    9 1
  15    9   10 ar
  16    9   14 ar
  17   10   11 ar
  18   10   25 1
  19   11   12 ar
  20   11   15 1
  21   12   13 ar
  22   12   18 1
  23   13   14 ar
  24   13   26 1
  25   14   27 1
  26   15   16 1
  27   15   28 1
  28   15   29 1
  29   16   17 1
  30   16   30 1
  31   16   31 1
  32   17   18 am
  33   17   32 1
  34   18   19 2

#	End of record

