#	Name: ASD04881111
#	Creating user name:	WinNT
#	Creation time:	15. 06. 2019 20:53

#	Modifying user name:	WinNT
#	Modification time:	15. 06. 2019 20:53

#	Program:	/corina/corina34_cracker 3.40 0067  02.08.2006

@<TRIPOS>MOLECULE
ASD04881111
  81   85    0    0    0
SMALL
NO_CHARGES


@<TRIPOS>ATOM
   1 O1            -0.3395     1.6032     1.2853 O.3     
   2 C2             0.8428     1.9311     0.7241 C.2     
   3 C3             1.3111     3.2897     0.4330 C.2     
   4 O4             2.4027     3.4609    -0.0773 O.2     
   5 C5             1.5271     0.7758     0.4752 C.2     
   6 C6             0.7096    -0.2791     0.9100 C.2     
   7 C7            -0.4235     0.2713     1.3991 C.2     
   8 N8             0.5327     4.3490     0.7304 N.am    
   9 C9             1.0224     5.6496     0.5540 C.ar    
  10 C10            0.1543     6.6792     0.1788 C.ar    
  11 C11            0.6388     7.9700     0.0035 C.ar    
  12 C12            1.9756     8.2397     0.1986 C.ar    
  13 C13            2.8486     7.2154     0.5741 C.ar    
  14 C14            2.3629     5.9171     0.7563 C.ar    
  15 C15            4.2802     7.5045     0.7831 C.2     
  16 O16            5.0392     6.6126     1.1098 O.2     
  17 N17            4.7466     8.7574     0.6118 N.am    
  18 N18           -1.1976     6.4110    -0.0199 N.3     
  19 C19           -1.3954     5.5363    -1.1841 C.3     
  20 C20           -2.8826     5.2017    -1.3206 C.3     
  21 N21           -3.6509     6.4462    -1.4641 N.3     
  22 C22           -3.4531     7.3210    -0.2999 C.3     
  23 C23           -1.9659     7.6556    -0.1633 C.3     
  24 C24           -5.0069     6.1772    -1.6634 C.ar    
  25 C25           -5.4290     5.5563    -2.8324 C.ar    
  26 C26           -6.7703     5.2914    -3.0261 C.ar    
  27 C27           -7.6932     5.6438    -2.0581 C.ar    
  28 C28           -7.2765     6.2618    -0.8936 C.ar    
  29 C29           -5.9357     6.5245    -0.6909 C.ar    
  30 C30           -4.4243     5.1729    -3.8881 C.3     
  31 C31            6.1681     9.0445     0.8192 C.3     
  32 C32            6.4314    10.5295     0.5618 C.3     
  33 N33            8.1680    12.2513     0.5320 N.am    
  34 C34            7.9160    10.8294     0.7785 C.3     
  35 C35           -1.5894    -0.4883     1.9776 C.3     
  36 C36            8.0988    13.3197     1.5406 C.3     
  37 C37            8.4489    14.5947     0.7492 C.3     
  38 O38            8.6762    14.1161    -0.6080 O.3     
  39 C39            8.5048    12.7900    -0.6479 C.2     
  40 O40            8.6386    12.1343    -1.6621 O.2     
  41 C41            6.6873    13.4190     2.1225 C.3     
  42 C42            9.1235    13.0779     2.6508 C.3     
  43 H43            2.5074     0.6904     0.0301 H       
  44 H44            0.9422    -1.3327     0.8621 H       
  45 H45           -0.3666     4.2109     1.0667 H       
  46 H46           -0.0342     8.7633    -0.2867 H       
  47 H47            2.3491     9.2436     0.0609 H       
  48 H48            3.0347     5.1242     1.0501 H       
  49 H49            4.1411     9.4689     0.3511 H       
  50 H50           -1.0533     6.0464    -2.0846 H       
  51 H51           -0.8266     4.6164    -1.0485 H       
  52 H52           -3.0354     4.5765    -2.2004 H       
  53 H53           -3.2183     4.6675    -0.4318 H       
  54 H54           -4.0219     8.2409    -0.4354 H       
  55 H55           -3.7953     6.8108     0.6006 H       
  56 H56           -1.8131     8.2807     0.7164 H       
  57 H57           -1.6302     8.1897    -1.0522 H       
  58 H58           -7.0991     4.8088    -3.9346 H       
  59 H59           -8.7417     5.4361    -2.2124 H       
  60 H60           -7.9998     6.5356    -0.1397 H       
  61 H61           -5.6104     7.0033     0.2209 H       
  62 H62           -4.1203     4.1365    -3.7411 H       
  63 H63           -4.8740     5.2832    -4.8749 H       
  64 H64           -3.5517     5.8217    -3.8119 H       
  65 H65            6.4423     8.7994     1.8453 H       
  66 H66            6.7641     8.4452     0.1309 H       
  67 H67            6.1572    10.7746    -0.4643 H       
  68 H68            5.8354    11.1288     1.2501 H       
  69 H69            8.1901    10.5843     1.8046 H       
  70 H70            8.5119    10.2301     0.0901 H       
  71 H71           -2.3609     0.2146     2.2920 H       
  72 H72           -1.9962    -1.1603     1.2219 H       
  73 H73           -1.2544    -1.0685     2.8373 H       
  74 H74            7.6172    15.2989     0.7718 H       
  75 H75            9.3524    15.0560     1.1480 H       
  76 H76            6.4203    12.4721     2.5917 H       
  77 H77            6.6562    14.2148     2.8666 H       
  78 H78            5.9797    13.6408     1.3235 H       
  79 H79           10.1258    13.0604     2.2226 H       
  80 H80            9.0570    13.8787     3.3873 H       
  81 H81            8.9178    12.1225     3.1333 H       
@<TRIPOS>BOND
   1    1    7 1
   2    1    2 1
   3    2    3 1
   4    2    5 2
   5    3    4 2
   6    3    8 am
   7    5    6 1
   8    5   43 1
   9    6    7 2
  10    6   44 1
  11    7   35 1
  12    8    9 1
  13    8   45 1
  14    9   10 ar
  15    9   14 ar
  16   10   11 ar
  17   10   18 1
  18   11   12 ar
  19   11   46 1
  20   12   13 ar
  21   12   47 1
  22   13   14 ar
  23   13   15 1
  24   14   48 1
  25   15   16 2
  26   15   17 am
  27   17   31 1
  28   17   49 1
  29   18   19 1
  30   18   23 1
  31   19   20 1
  32   19   50 1
  33   19   51 1
  34   20   21 1
  35   20   52 1
  36   20   53 1
  37   21   22 1
  38   21   24 1
  39   22   23 1
  40   22   54 1
  41   22   55 1
  42   23   56 1
  43   23   57 1
  44   24   25 ar
  45   24   29 ar
  46   25   26 ar
  47   25   30 1
  48   26   27 ar
  49   26   58 1
  50   27   28 ar
  51   27   59 1
  52   28   29 ar
  53   28   60 1
  54   29   61 1
  55   30   62 1
  56   30   63 1
  57   30   64 1
  58   31   32 1
  59   31   65 1
  60   31   66 1
  61   32   34 1
  62   32   67 1
  63   32   68 1
  64   33   34 1
  65   33   36 1
  66   33   39 am
  67   34   69 1
  68   34   70 1
  69   35   71 1
  70   35   72 1
  71   35   73 1
  72   36   37 1
  73   36   41 1
  74   36   42 1
  75   37   38 1
  76   37   74 1
  77   37   75 1
  78   38   39 1
  79   39   40 2
  80   41   76 1
  81   41   77 1
  82   41   78 1
  83   42   79 1
  84   42   80 1
  85   42   81 1

#	End of record

