#	Name: ASD04590254
#	Creating user name:	WinNT
#	Creation time:	15. 06. 2019 20:50

#	Modifying user name:	WinNT
#	Modification time:	15. 06. 2019 20:50

#	Program:	/corina/corina34_cracker 3.40 0067  02.08.2006

@<TRIPOS>MOLECULE
ASD04590254
  45   47    0    0    0
SMALL
NO_CHARGES


@<TRIPOS>ATOM
   1 N1            -0.0169     1.3950     0.0097 N.pl3   
   2 N2             0.0021    -0.0041     0.0020 N.2     
   3 C3             1.2467    -0.4104    -0.0120 C.2     
   4 C4             2.0789     0.7380    -0.0138 C.2     
   5 C5             1.2484     1.8413     0.0000 C.2     
   6 N6             1.6782    -1.7391    -0.0226 N.am    
   7 C7             3.5511     0.7515    -0.0278 C.2     
   8 O8             4.1687    -0.2962    -0.0393 O.2     
   9 N9             4.2143     1.9248    -0.0278 N.am    
  10 C10            5.6792     1.9382    -0.0418 C.3     
  11 C11            6.1732     3.2540    -0.6494 C.3     
  12 C12            7.7025     3.2881    -0.6054 C.3     
  13 N13            8.1563     3.1700     0.7862 N.3     
  14 C14            7.7341     1.8931     1.3758 C.3     
  15 C15            6.2057     1.8173     1.3910 C.3     
  16 C16            0.7763    -2.7406    -0.0191 C.2     
  17 O17           -0.4130    -2.4877    -0.0068 O.2     
  18 C18            1.2320    -4.1435    -0.0303 C.ar    
  19 C19            1.4380    -4.8067    -1.2449 C.ar    
  20 C20            1.8650    -6.1213    -1.2461 C.ar    
  21 C21            2.0881    -6.7812    -0.0512 C.ar    
  22 C22            1.8865    -6.1334     1.1540 C.ar    
  23 C23            1.4661    -4.8168     1.1737 C.ar    
  24 F24            1.2702    -4.1857     2.3520 F       
  25 F25            1.2199    -4.1642    -2.4131 F       
  26 C26            2.5531    -8.2146    -0.0626 C.3     
  27 H27           -0.8125     1.9499     0.0167 H       
  28 H28            1.5606     2.8752     0.0019 H       
  29 H29            2.6270    -1.9408    -0.0324 H       
  30 H30            3.7217     2.7604    -0.0187 H       
  31 H31            6.0455     1.1018    -0.6372 H       
  32 H32            5.8371     3.3260    -1.6838 H       
  33 H33            5.7739     4.0915    -0.0773 H       
  34 H34            8.1012     2.4584    -1.1891 H       
  35 H35            8.0569     4.2299    -1.0243 H       
  36 H36            9.1565     3.2852     0.8513 H       
  37 H37            8.1326     1.0699     0.7828 H       
  38 H38            8.1114     1.8217     2.3959 H       
  39 H39            5.8069     2.6322     1.9952 H       
  40 H40            5.8928     0.8628     1.8143 H       
  41 H41            2.0246    -6.6348    -2.1827 H       
  42 H42            2.0624    -6.6564     2.0824 H       
  43 H43            3.6427    -8.2431    -0.0727 H       
  44 H44            2.1846    -8.7232     0.8283 H       
  45 H45            2.1683    -8.7144    -0.9516 H       
@<TRIPOS>BOND
   1    1    2 1
   2    1    5 1
   3    1   27 1
   4    2    3 2
   5    3    4 1
   6    3    6 1
   7    4    5 2
   8    4    7 1
   9    5   28 1
  10    6   16 am
  11    6   29 1
  12    7    8 2
  13    7    9 am
  14    9   10 1
  15    9   30 1
  16   10   11 1
  17   10   15 1
  18   10   31 1
  19   11   12 1
  20   11   32 1
  21   11   33 1
  22   12   13 1
  23   12   34 1
  24   12   35 1
  25   13   14 1
  26   13   36 1
  27   14   15 1
  28   14   37 1
  29   14   38 1
  30   15   39 1
  31   15   40 1
  32   16   17 2
  33   16   18 1
  34   18   19 ar
  35   18   23 ar
  36   19   20 ar
  37   19   25 1
  38   20   21 ar
  39   20   41 1
  40   21   22 ar
  41   21   26 1
  42   22   23 ar
  43   22   42 1
  44   23   24 1
  45   26   43 1
  46   26   44 1
  47   26   45 1

#	End of record

