#	Name: ASD01841061
#	Creating user name:	WinNT
#	Creation time:	15. 06. 2019 19:38

#	Modifying user name:	WinNT
#	Modification time:	15. 06. 2019 19:38

#	Program:	/corina/corina34_cracker 3.40 0067  02.08.2006

@<TRIPOS>MOLECULE
ASD01841061
  34   36    0    0    0
SMALL
NO_CHARGES


@<TRIPOS>ATOM
   1 S1            -0.0187     1.7482    -0.2061 S.3     
   2 C2             0.0033    -0.0066    -0.0910 C.2     
   3 N3             1.2174    -0.4329    -0.0047 N.2     
   4 C4             2.2028     0.4640    -0.0155 C.ar    
   5 C5             1.7412     1.7838    -0.1235 C.ar    
   6 C6             2.6433     2.8475    -0.1496 C.ar    
   7 C7             3.9964     2.6121    -0.0698 C.ar    
   8 C8             4.4728     1.3127     0.0376 C.ar    
   9 C9             3.6038     0.2474     0.0662 C.ar    
  10 C10            2.1335     4.2609    -0.2660 C.3     
  11 O11            4.0876    -1.0172     0.1722 O.3     
  12 C12            5.5068    -1.1645     0.2502 C.3     
  13 C13           -2.1974    -3.0115     0.1127 C.ar    
  14 C14           -2.2368    -4.2758    -0.4738 C.ar    
  15 C15           -3.3741    -5.0439    -0.3351 C.ar    
  16 N16           -4.4147    -4.5959     0.3417 N.ar    
  17 C17           -4.4162    -3.4054     0.9112 C.ar    
  18 C18           -3.3178    -2.5760     0.8191 C.ar    
  19 C19           -1.1961    -0.8680    -0.0925 C.2     
  20 O20           -2.3019    -0.3702    -0.1778 O.2     
  21 N21           -1.0649    -2.2061     0.0008 N.am    
  22 H22            4.6895     3.4400    -0.0912 H       
  23 H23            5.5365     1.1367     0.0993 H       
  24 H24            1.9615     4.6683     0.7302 H       
  25 H25            2.8715     4.8717    -0.7859 H       
  26 H26            1.1987     4.2649    -0.8266 H       
  27 H27            5.7585    -2.2220     0.3315 H       
  28 H28            5.9651    -0.7500    -0.6477 H       
  29 H29            5.8796    -0.6340     1.1264 H       
  30 H30           -1.3888    -4.6484    -1.0293 H       
  31 H31           -3.4136    -6.0243    -0.7863 H       
  32 H32           -5.2886    -3.0761     1.4560 H       
  33 H33           -3.3255    -1.6030     1.2878 H       
  34 H34           -0.1825    -2.6088    -0.0100 H       
@<TRIPOS>BOND
   1    1    2 1
   2    1    5 1
   3    2    3 2
   4    2   19 1
   5    3    4 1
   6    4    5 ar
   7    4    9 ar
   8    5    6 ar
   9    6    7 ar
  10    6   10 1
  11    7    8 ar
  12    7   22 1
  13    8    9 ar
  14    8   23 1
  15    9   11 1
  16   10   24 1
  17   10   25 1
  18   10   26 1
  19   11   12 1
  20   12   27 1
  21   12   28 1
  22   12   29 1
  23   13   14 ar
  24   13   18 ar
  25   13   21 1
  26   14   15 ar
  27   14   30 1
  28   15   16 ar
  29   15   31 1
  30   16   17 ar
  31   17   18 ar
  32   17   32 1
  33   18   33 1
  34   19   20 2
  35   19   21 am
  36   21   34 1

#	End of record

