#	Name: ASD03430790
#	Creating user name:	WinNT
#	Creation time:	15. 06. 2019 20:41

#	Modifying user name:	WinNT
#	Modification time:	15. 06. 2019 20:41

#	Program:	/corina/corina34_cracker 3.40 0067  02.08.2006

@<TRIPOS>MOLECULE
ASD03430790
  35   39    0    0    0
SMALL
NO_CHARGES


@<TRIPOS>ATOM
   1 C1            -0.0168     1.3858     0.0097 C.ar    
   2 C2             0.0021    -0.0041     0.0020 C.ar    
   3 C3             1.2110    -0.6770    -0.0099 C.ar    
   4 C4             2.4126     0.0241    -0.0062 C.ar    
   5 C5             2.3825     1.4156    -0.0056 C.ar    
   6 C6             1.1782     2.0888     0.0020 C.ar    
   7 C7             1.5667    -2.1387    -0.0422 C.3     
   8 C8             3.0535    -2.1307    -0.4251 C.3     
   9 C9             0.4595    -3.8668     1.0110 C.ar    
  10 C10            1.3344    -2.8158     1.2759 C.ar    
  11 C11            0.7408    -2.9057    -1.0347 C.2     
  12 N12            0.1326    -3.8926    -0.3469 N.am    
  13 O13            0.6402    -2.6807    -2.2223 O.2     
  14 C14            1.7931    -2.5920     2.5544 C.ar    
  15 C15            1.3880    -3.4153     3.5904 C.ar    
  16 C16            0.5219    -4.4633     3.3385 C.ar    
  17 C17            0.0584    -4.6910     2.0591 C.ar    
  18 O18            3.4799    -0.8249     0.0086 O.3     
  19 O19           -1.1598    -0.7139     0.0017 O.3     
  20 C20           -2.3442    -0.0109     0.3917 C.3     
  21 C21           -2.3684     1.3369    -0.3418 C.3     
  22 O22           -1.1947     2.0686     0.0302 O.3     
  23 H23            3.3081     1.9721    -0.0107 H       
  24 H24            1.1663     3.1688     0.0021 H       
  25 H25            3.5949    -2.9118     0.1086 H       
  26 H26            3.1764    -2.2401    -1.5026 H       
  27 H27           -0.4631    -4.5447    -0.7481 H       
  28 H28            2.4696    -1.7729     2.7492 H       
  29 H29            1.7478    -3.2399     4.5935 H       
  30 H30            0.2071    -5.1067     4.1468 H       
  31 H31           -0.6185    -5.5111     1.8700 H       
  32 H32           -3.2239    -0.5936     0.1186 H       
  33 H33           -2.3339     0.1570     1.4686 H       
  34 H34           -2.3728     1.1694    -1.4189 H       
  35 H35           -3.2575     1.8971    -0.0525 H       
@<TRIPOS>BOND
   1    1    2 ar
   2    1    6 ar
   3    1   22 1
   4    2    3 ar
   5    2   19 1
   6    3    4 ar
   7    3    7 1
   8    4    5 ar
   9    4   18 1
  10    5    6 ar
  11    5   23 1
  12    6   24 1
  13    7    8 1
  14    7   10 1
  15    7   11 1
  16    8   18 1
  17    8   25 1
  18    8   26 1
  19    9   10 ar
  20    9   12 1
  21    9   17 ar
  22   10   14 ar
  23   11   12 am
  24   11   13 2
  25   12   27 1
  26   14   15 ar
  27   14   28 1
  28   15   16 ar
  29   15   29 1
  30   16   17 ar
  31   16   30 1
  32   17   31 1
  33   19   20 1
  34   20   21 1
  35   20   32 1
  36   20   33 1
  37   21   22 1
  38   21   34 1
  39   21   35 1

#	End of record

