#	Name: ASD03091577
#	Creating user name:	WinNT
#	Creation time:	15. 06. 2019 20:31

#	Modifying user name:	WinNT
#	Modification time:	15. 06. 2019 20:31

#	Program:	/corina/corina34_cracker 3.40 0067  02.08.2006

@<TRIPOS>MOLECULE
ASD03091577
  44   46    0    0    0
SMALL
NO_CHARGES


@<TRIPOS>ATOM
   1 C1            -0.0195     1.3497     0.0164 C.2     
   2 C2            -0.0036     0.0113     0.1886 C.2     
   3 N3            -1.1902    -0.5545     0.1446 N.2     
   4 C4            -2.2099     0.2254    -0.0548 C.2     
   5 S5            -1.6948     1.8486    -0.2036 S.3     
   6 N6            -3.5248    -0.1965    -0.1298 N.3     
   7 C7            -3.6218    -1.6527     0.0470 C.3     
   8 C8            -4.1388     0.2160    -1.4003 C.3     
   9 C9            -5.6069    -0.2181    -1.4161 C.3     
  10 O10           -5.6831    -1.6315    -1.2117 O.3     
  11 C11           -5.0950    -2.0681     0.0167 C.3     
  12 C12            1.1582     2.2393     0.0183 C.ar    
  13 C13            2.2828     1.9473    -0.7651 C.ar    
  14 C14            1.1808     3.4027     0.7990 C.ar    
  15 C15            2.3011     4.2047     0.7700 C.ar    
  16 N16            3.3414     3.8897     0.0208 N.ar    
  17 C17            3.3601     2.8060    -0.7330 C.ar    
  18 C18            1.2661    -0.7689     0.4125 C.3     
  19 N19            1.6149    -0.7378     1.8392 N.3     
  20 C20            4.5784     2.5010    -1.5659 C.3     
  21 C21            2.3389     5.4588     1.6047 C.3     
  22 C22           -3.0076    -2.0461     1.3920 C.3     
  23 H23           -3.0851    -2.1537    -0.7586 H       
  24 H24           -4.0787     1.2999    -1.4986 H       
  25 H25           -3.6110    -0.2551    -2.2295 H       
  26 H26           -6.1465     0.2945    -0.6197 H       
  27 H27           -6.0509     0.0349    -2.3789 H       
  28 H28           -5.1689    -3.1531     0.0902 H       
  29 H29           -5.6198    -1.6093     0.8547 H       
  30 H30            2.3050     1.0626    -1.3841 H       
  31 H31            0.3331     3.6671     1.4138 H       
  32 H32            1.1184    -1.8017     0.0971 H       
  33 H33            2.0736    -0.3235    -0.1686 H       
  34 H34            2.4635    -1.2544     2.0154 H       
  35 H35            1.6940     0.2117     2.1715 H       
  36 H36            5.2715     1.8914    -0.9862 H       
  37 H37            4.2792     1.9579    -2.4623 H       
  38 H38            5.0659     3.4332    -1.8516 H       
  39 H39            2.7495     5.2287     2.5878 H       
  40 H40            2.9663     6.2030     1.1140 H       
  41 H41            1.3284     5.8520     1.7159 H       
  42 H42           -3.5457    -1.5460     2.1973 H       
  43 H43           -3.0798    -3.1258     1.5225 H       
  44 H44           -1.9598    -1.7467     1.4144 H       
@<TRIPOS>BOND
   1    1    2 2
   2    1   12 1
   3    1    5 1
   4    2    3 1
   5    2   18 1
   6    3    4 2
   7    4    5 1
   8    4    6 1
   9    6    7 1
  10    6    8 1
  11    7   22 1
  12    7   11 1
  13    7   23 1
  14    8    9 1
  15    8   24 1
  16    8   25 1
  17    9   10 1
  18    9   26 1
  19    9   27 1
  20   10   11 1
  21   11   28 1
  22   11   29 1
  23   12   13 ar
  24   12   14 ar
  25   13   17 ar
  26   13   30 1
  27   14   15 ar
  28   14   31 1
  29   15   16 ar
  30   15   21 1
  31   16   17 ar
  32   17   20 1
  33   18   19 1
  34   18   32 1
  35   18   33 1
  36   19   34 1
  37   19   35 1
  38   20   36 1
  39   20   37 1
  40   20   38 1
  41   21   39 1
  42   21   40 1
  43   21   41 1
  44   22   42 1
  45   22   43 1
  46   22   44 1

#	End of record

