#	Name: ASD01140514
#	Creating user name:	WinNT
#	Creation time:	15. 06. 2019 19:01

#	Modifying user name:	WinNT
#	Modification time:	15. 06. 2019 19:01

#	Program:	/corina/corina34_cracker 3.40 0067  02.08.2006

@<TRIPOS>MOLECULE
ASD01140514
  50   51    0    0    0
SMALL
NO_CHARGES


@<TRIPOS>ATOM
   1 C1            -0.0166     1.3760     0.0096 C.ar    
   2 C2             0.0021    -0.0041     0.0020 C.ar    
   3 C3             1.2057    -0.6853    -0.0127 C.ar    
   4 C4             2.4044     0.0141    -0.0200 C.ar    
   5 C5             2.3966     1.4054    -0.0129 C.ar    
   6 C6             1.1804     2.0906     0.0020 C.ar    
   7 C7             1.1617     3.5737     0.0097 C.ar    
   8 C8             1.9371     4.2772     0.9303 C.ar    
   9 C9             1.9176     5.6560     0.9350 C.ar    
  10 C10            1.1265     6.3437     0.0245 C.ar    
  11 C11            0.3532     5.6461    -0.8930 C.ar    
  12 C12            0.3735     4.2669    -0.9071 C.ar    
  13 O13            3.5686     2.0948    -0.0195 O.3     
  14 O14            1.1091     7.7024     0.0318 O.3     
  15 C15           -1.2946    -0.7720     0.0103 C.3     
  16 C16           -1.7472    -1.0241    -1.4293 C.3     
  17 C17           -3.0636    -1.8038    -1.4208 C.3     
  18 C18            2.7554     6.4172     1.9298 C.3     
  19 C19            1.9046     6.7647     3.1530 C.3     
  20 C20            2.7552     7.5376     4.1630 C.3     
  21 N21            3.6202    -0.6797    -0.0340 N.pl3   
  22 C22            0.2731     8.3458    -0.9321 C.3     
  23 C23            0.3840     9.8633    -0.7716 C.3     
  24 H24           -0.9594     1.9028     0.0169 H       
  25 H25            1.2127    -1.7653    -0.0182 H       
  26 H26            2.5520     3.7429     1.6393 H       
  27 H27           -0.2617     6.1838    -1.5996 H       
  28 H28           -0.2248     3.7248    -1.6244 H       
  29 H29            3.9000     2.2987    -0.9048 H       
  30 H30           -1.1488    -1.7256     0.5177 H       
  31 H31           -2.0557    -0.1941     0.5346 H       
  32 H32           -1.8930    -0.0705    -1.9366 H       
  33 H33           -0.9861    -1.6020    -1.9535 H       
  34 H34           -3.3861    -1.9834    -2.4464 H       
  35 H35           -2.9179    -2.7574    -0.9135 H       
  36 H36           -3.8248    -1.2259    -0.8966 H       
  37 H37            3.6012     5.8027     2.2382 H       
  38 H38            3.1218     7.3348     1.4695 H       
  39 H39            1.0589     7.3793     2.8446 H       
  40 H40            1.5382     5.8471     3.6133 H       
  41 H41            2.1491     7.7852     5.0345 H       
  42 H42            3.6009     6.9230     4.4714 H       
  43 H43            3.1216     8.4552     3.7027 H       
  44 H44            3.6251    -1.6496    -0.0386 H       
  45 H45            4.4578    -0.1904    -0.0391 H       
  46 H46            0.5910     8.0624    -1.9355 H       
  47 H47           -0.7614     8.0388    -0.7785 H       
  48 H48           -0.2537    10.3540    -1.5069 H       
  49 H49            0.0661    10.1467     0.2318 H       
  50 H50            1.4185    10.1703    -0.9252 H       
@<TRIPOS>BOND
   1    1    2 ar
   2    1    6 ar
   3    1   24 1
   4    2    3 ar
   5    2   15 1
   6    3    4 ar
   7    3   25 1
   8    4    5 ar
   9    4   21 1
  10    5    6 ar
  11    5   13 1
  12    6    7 1
  13    7    8 ar
  14    7   12 ar
  15    8    9 ar
  16    8   26 1
  17    9   10 ar
  18    9   18 1
  19   10   11 ar
  20   10   14 1
  21   11   12 ar
  22   11   27 1
  23   12   28 1
  24   13   29 1
  25   14   22 1
  26   15   16 1
  27   15   30 1
  28   15   31 1
  29   16   17 1
  30   16   32 1
  31   16   33 1
  32   17   34 1
  33   17   35 1
  34   17   36 1
  35   18   19 1
  36   18   37 1
  37   18   38 1
  38   19   20 1
  39   19   39 1
  40   19   40 1
  41   20   41 1
  42   20   42 1
  43   20   43 1
  44   21   44 1
  45   21   45 1
  46   22   23 1
  47   22   46 1
  48   22   47 1
  49   23   48 1
  50   23   49 1
  51   23   50 1

#	End of record

