#	Name: ASD01918595
#	Creating user name:	WinNT
#	Creation time:	15. 06. 2019 20:11

#	Modifying user name:	WinNT
#	Modification time:	15. 06. 2019 20:11

#	Program:	/corina/corina34_cracker 3.40 0067  02.08.2006

@<TRIPOS>MOLECULE
ASD01918595
  39   42    0    0    0
SMALL
NO_CHARGES


@<TRIPOS>ATOM
   1 C1            -0.0308     1.4991     0.0059 C.3     
   2 C2            -0.0040    -0.0077     0.0006 C.ar    
   3 C3             0.0008    -0.7132    -1.1903 C.ar    
   4 C4             0.0256    -2.0957    -1.1574 C.ar    
   5 N5             0.0442    -2.7481    -0.0114 N.ar    
   6 C6             0.0405    -2.1196     1.1466 C.ar    
   7 C7             0.0224    -0.7279     1.1978 C.ar    
   8 C8             0.0251    -0.0211     2.5033 C.2     
   9 C9            -1.1452     0.0068     3.2823 C.2     
  10 C10           -1.1304     0.6704     4.5015 C.2     
  11 C11           -2.3362     0.7210     5.3457 C.2     
  12 O12           -3.3599     0.1776     4.9770 O.2     
  13 N13           -2.3052     1.3695     6.5268 N.am    
  14 C14           -3.4719     1.5105     7.2748 C.ar    
  15 C15           -3.4141     2.0849     8.5395 C.ar    
  16 C16           -4.5806     2.2190     9.2719 C.ar    
  17 C17           -5.7694     1.7722     8.7116 C.ar    
  18 C18           -5.7533     1.2113     7.4496 C.ar    
  19 N19           -4.6266     1.1013     6.7726 N.ar    
  20 C20            0.1100     1.3182     4.9296 C.2     
  21 N21            0.4411     2.0115     6.0070 N.2     
  22 C22            1.7100     2.3914     5.9216 C.2     
  23 N23            2.2247     1.9565     4.7966 N.2     
  24 N24            1.2129     1.2541     4.1253 N.pl3   
  25 C25            1.1725     0.5945     2.9411 C.2     
  26 H26            0.9901     1.8807    -0.0045 H       
  27 H27           -0.5612     1.8561    -0.8770 H       
  28 H28           -0.5409     1.8503     0.9029 H       
  29 H29           -0.0150    -0.1899    -2.1349 H       
  30 H30            0.0294    -2.6495    -2.0846 H       
  31 H31            0.0558    -2.6887     2.0643 H       
  32 H32           -2.0442    -0.4816     2.9364 H       
  33 H33           -1.4705     1.7380     6.8560 H       
  34 H34           -2.4714     2.4215     8.9451 H       
  35 H35           -4.5663     2.6609    10.2572 H       
  36 H36           -6.6972     1.8619     9.2570 H       
  37 H37           -6.6757     0.8619     7.0097 H       
  38 H38            2.2379     2.9703     6.6650 H       
  39 H39            2.0601     0.5560     2.3271 H       
@<TRIPOS>BOND
   1    1    2 1
   2    1   26 1
   3    1   27 1
   4    1   28 1
   5    2    7 ar
   6    2    3 ar
   7    3    4 ar
   8    3   29 1
   9    4    5 ar
  10    4   30 1
  11    5    6 ar
  12    6    7 ar
  13    6   31 1
  14    7    8 1
  15    8   25 2
  16    8    9 1
  17    9   10 2
  18    9   32 1
  19   10   11 1
  20   10   20 1
  21   11   12 2
  22   11   13 am
  23   13   14 1
  24   13   33 1
  25   14   19 ar
  26   14   15 ar
  27   15   16 ar
  28   15   34 1
  29   16   17 ar
  30   16   35 1
  31   17   18 ar
  32   17   36 1
  33   18   19 ar
  34   18   37 1
  35   20   24 1
  36   20   21 2
  37   21   22 1
  38   22   23 2
  39   22   38 1
  40   23   24 1
  41   24   25 1
  42   25   39 1

#	End of record

