#	Name: ASD01028278
#	Creating user name:	WinNT
#	Creation time:	15. 06. 2019 18:56

#	Modifying user name:	WinNT
#	Modification time:	15. 06. 2019 18:56

#	Program:	/corina/corina34_cracker 3.40 0067  02.08.2006

@<TRIPOS>MOLECULE
ASD01028278
  46   50    0    0    0
SMALL
NO_CHARGES


@<TRIPOS>ATOM
   1 C1            -0.0166     1.3723     0.0096 C.ar    
   2 C2             0.0021    -0.0041     0.0020 C.ar    
   3 C3             1.1747     2.1037     0.0021 C.ar    
   4 C4             2.3796     1.4715    -0.0132 C.ar    
   5 C5             2.4325     0.0698    -0.0211 C.ar    
   6 C6             1.2318    -0.6813    -0.0133 C.ar    
   7 C7             3.6676    -0.6167    -0.0365 C.ar    
   8 C8             3.6410    -2.0000    -0.0432 C.ar    
   9 C9             2.4219    -2.6658    -0.0348 C.ar    
  10 N10            1.2802    -2.0187    -0.0200 N.ar    
  11 O11            4.8427     0.0595    -0.0449 O.3     
  12 C12            6.0400    -0.7206    -0.0603 C.3     
  13 C13            7.2364     0.1957    -0.0678 C.2     
  14 N14            7.8861     0.6798     1.0255 N.pl3   
  15 C15            8.9032     1.4646     0.5418 C.2     
  16 N16            8.8258     1.4214    -0.7786 N.2     
  17 N17            7.8438     0.6665    -1.1267 N.2     
  18 C18            7.7064     0.5263     2.3687 C.2     
  19 C19            8.5354     1.1514     3.2510 C.2     
  20 C20            9.5919     1.9668     2.7770 C.2     
  21 C21            9.7740     2.1199     1.4387 C.2     
  22 C22            8.3313     0.9784     4.7062 C.2     
  23 S23            6.9328     1.5217     5.6302 S.3     
  24 C24            7.6222     0.8925     7.0624 C.2     
  25 N25            8.7668     0.3515     6.8101 N.2     
  26 C26            9.1807     0.3711     5.5619 C.2     
  27 F27           10.7774     2.8944     0.9713 F       
  28 C28            6.9846     0.9603     8.4261 C.3     
  29 O29           -1.2065     2.0274     0.0187 O.3     
  30 C30           -1.1606     3.4557     0.0263 C.3     
  31 H31           -0.9239    -0.5598     0.0082 H       
  32 H32            1.1383     3.1831     0.0082 H       
  33 H33            3.2931     2.0476    -0.0195 H       
  34 H34            4.5644    -2.5599    -0.0552 H       
  35 H35            2.4133    -3.7457    -0.0405 H       
  36 H36            6.0726    -1.3536     0.8264 H       
  37 H37            6.0551    -1.3452    -0.9534 H       
  38 H38            6.9020    -0.0941     2.7351 H       
  39 H39           10.2497     2.4635     3.4748 H       
  40 H40           10.1225    -0.0553     5.2496 H       
  41 H41            6.3668     0.0761     8.5827 H       
  42 H42            7.7620     1.0002     9.1892 H       
  43 H43            6.3638     1.8538     8.4929 H       
  44 H44           -0.6312     3.7975     0.9157 H       
  45 H45           -0.6396     3.8072    -0.8642 H       
  46 H46           -2.1761     3.8518     0.0332 H       
@<TRIPOS>BOND
   1    1    2 ar
   2    1    3 ar
   3    1   29 1
   4    2    6 ar
   5    2   31 1
   6    3    4 ar
   7    3   32 1
   8    4    5 ar
   9    4   33 1
  10    5    6 ar
  11    5    7 ar
  12    6   10 ar
  13    7    8 ar
  14    7   11 1
  15    8    9 ar
  16    8   34 1
  17    9   10 ar
  18    9   35 1
  19   11   12 1
  20   12   13 1
  21   12   36 1
  22   12   37 1
  23   13   14 1
  24   13   17 2
  25   14   15 1
  26   14   18 1
  27   15   16 2
  28   15   21 1
  29   16   17 1
  30   18   19 2
  31   18   38 1
  32   19   20 1
  33   19   22 1
  34   20   21 2
  35   20   39 1
  36   21   27 1
  37   22   23 1
  38   22   26 2
  39   23   24 1
  40   24   25 2
  41   24   28 1
  42   25   26 1
  43   26   40 1
  44   28   41 1
  45   28   42 1
  46   28   43 1
  47   29   30 1
  48   30   44 1
  49   30   45 1
  50   30   46 1

#	End of record

