#	Name: ASD02198276
#	Creating user name:	WinNT
#	Creation time:	15. 06. 2019 20:19

#	Modifying user name:	WinNT
#	Modification time:	15. 06. 2019 20:19

#	Program:	/corina/corina34_cracker 3.40 0067  02.08.2006

@<TRIPOS>MOLECULE
ASD02198276
  50   53    0    0    0
SMALL
NO_CHARGES


@<TRIPOS>ATOM
   1 C1             0.1357     1.3925    -0.8506 C.2     
   2 C2             0.1758     0.0115    -0.9358 C.2     
   3 S3             1.7475     1.9482    -0.4068 S.3     
   4 C4             2.3130     0.3362    -0.3758 C.2     
   5 N5             1.3569    -0.4964    -0.6737 N.2     
   6 N6            -0.9258    -0.7607    -1.2657 N.pl3   
   7 C7            -0.9888     2.2066    -1.0827 C.2     
   8 O8            -2.0551     1.7004    -1.3911 O.2     
   9 C9            -0.8780     3.6728    -0.9529 C.2     
  10 N10            3.6050    -0.0326    -0.0769 N.pl3   
  11 C11            3.9391    -1.3878     0.0294 C.ar    
  12 C12            2.9984    -2.3015     0.4866 C.ar    
  13 C13            3.3287    -3.6381     0.5913 C.ar    
  14 C14            4.6002    -4.0683     0.2403 C.ar    
  15 C15            5.5406    -3.1561    -0.2165 C.ar    
  16 C16            5.2098    -1.8201    -0.3276 C.ar    
  17 C17           -1.8737     4.5903    -1.1448 C.2     
  18 C18           -1.2387     5.8365    -0.8949 C.2     
  19 N19            0.0067     5.5612    -0.5942 N.2     
  20 O20            0.2216     4.3720    -0.6165 O.3     
  21 C21           -1.8609     7.1803    -0.9612 C.2     
  22 O22           -3.0337     7.2924    -1.2547 O.2     
  23 O23           -1.1255     8.2766    -0.6960 O.3     
  24 C24           -1.8005     9.5594    -0.7801 C.3     
  25 C25           -0.8117    10.6787    -0.4481 C.3     
  26 O26            4.9251    -5.3844     0.3445 O.3     
  27 C27            4.4704    -6.2316    -0.6157 C.ar    
  28 C28            3.7706    -5.7350    -1.7061 C.ar    
  29 C29            3.3094    -6.5985    -2.6807 C.ar    
  30 C30            3.5446    -7.9566    -2.5704 C.ar    
  31 C31            4.2413    -8.4541    -1.4846 C.ar    
  32 C32            4.7100    -7.5943    -0.5103 C.ar    
  33 H33           -1.7780    -0.3359    -1.4505 H       
  34 H34           -0.8450    -1.7262    -1.3120 H       
  35 H35            4.2839     0.6465     0.0600 H       
  36 H36            2.0088    -1.9666     0.7605 H       
  37 H37            2.5973    -4.3487     0.9468 H       
  38 H38            6.5302    -3.4916    -0.4892 H       
  39 H39            5.9418    -1.1101    -0.6832 H       
  40 H40           -2.9018     4.4099    -1.4221 H       
  41 H41           -2.1852     9.7021    -1.7899 H       
  42 H42           -2.6271     9.5823    -0.0699 H       
  43 H43           -1.3184    11.6417    -0.5113 H       
  44 H44           -0.4271    10.5361     0.5617 H       
  45 H45            0.0148    10.6559    -1.1584 H       
  46 H46            3.5864    -4.6744    -1.7926 H       
  47 H47            2.7644    -6.2125    -3.5295 H       
  48 H48            3.1832    -8.6300    -3.3335 H       
  49 H49            4.4230    -9.5154    -1.4004 H       
  50 H50            5.2543    -7.9834     0.3375 H       
@<TRIPOS>BOND
   1    1    2 2
   2    1    3 1
   3    1    7 1
   4    2    6 1
   5    2    5 1
   6    3    4 1
   7    4    5 2
   8    4   10 1
   9    6   33 1
  10    6   34 1
  11    7    8 2
  12    7    9 1
  13    9   17 2
  14    9   20 1
  15   10   11 1
  16   10   35 1
  17   11   12 ar
  18   11   16 ar
  19   12   13 ar
  20   12   36 1
  21   13   14 ar
  22   13   37 1
  23   14   15 ar
  24   14   26 1
  25   15   16 ar
  26   15   38 1
  27   16   39 1
  28   17   18 1
  29   17   40 1
  30   18   19 2
  31   18   21 1
  32   19   20 1
  33   21   22 2
  34   21   23 1
  35   23   24 1
  36   24   25 1
  37   24   41 1
  38   24   42 1
  39   25   43 1
  40   25   44 1
  41   25   45 1
  42   26   27 1
  43   27   28 ar
  44   27   32 ar
  45   28   29 ar
  46   28   46 1
  47   29   30 ar
  48   29   47 1
  49   30   31 ar
  50   30   48 1
  51   31   32 ar
  52   31   49 1
  53   32   50 1

#	End of record

