#	Name: ASD00100133
#	Creating user name:	WinNT
#	Creation time:	15. 06. 2019 18:30

#	Modifying user name:	WinNT
#	Modification time:	15. 06. 2019 18:30

#	Program:	/corina/corina34_cracker 3.40 0067  02.08.2006

@<TRIPOS>MOLECULE
ASD00100133
  39   41    0    0    0
SMALL
NO_CHARGES


@<TRIPOS>ATOM
   1 C1             0.0732    -0.0158     0.2483 C.1     
   2 C2             0.0411     1.4150     0.1999 C.ar    
   3 C3             1.1834     2.1520     0.5269 C.ar    
   4 C4             1.1515     3.5219     0.4802 C.ar    
   5 C5            -0.0211     4.1810     0.1068 C.ar    
   6 C6            -1.1623     3.4463    -0.2199 C.ar    
   7 C7            -1.1310     2.0761    -0.1800 C.ar    
   8 N8             0.0986    -1.1509     0.2868 N.1     
   9 C9             0.5828     7.7341     0.1956 C.2     
  10 N10            0.9770     6.4938     0.3486 N.2     
  11 C11           -0.0546     5.6610     0.0577 C.2     
  12 C12           -1.1224     6.4254    -0.2870 C.2     
  13 N13           -0.7199     7.7343    -0.1999 N.pl3   
  14 C14           -1.5410     8.9147    -0.4804 C.3     
  15 C15           -1.3722     9.3125    -1.9241 C.ar    
  16 C16           -2.1393     8.7069    -2.9039 C.ar    
  17 C17           -1.9832     9.0727    -4.2303 C.ar    
  18 C18           -1.0614    10.0427    -4.5778 C.ar    
  19 C19           -0.2941    10.6497    -3.6027 C.ar    
  20 C20           -0.4519    10.2898    -2.2718 C.ar    
  21 O21            0.2987    10.8901    -1.3111 O.3     
  22 C22            1.2265    11.8880    -1.7418 C.3     
  23 F23           -3.0403     7.7586    -2.5663 F       
  24 N24            1.3609     8.8591     0.4071 N.pl3   
  25 H25            2.0905     1.6423     0.8165 H       
  26 H26            2.0337     4.0913     0.7328 H       
  27 H27           -2.0689     3.9573    -0.5087 H       
  28 H28           -2.0125     1.5078    -0.4375 H       
  29 H29           -2.1012     6.0711    -0.5747 H       
  30 H30           -2.5885     8.6828    -0.2876 H       
  31 H31           -1.2267     9.7370     0.1622 H       
  32 H32           -2.5820     8.5994    -4.9943 H       
  33 H33           -0.9408    10.3259    -5.6131 H       
  34 H34            0.4258    11.4070    -3.8757 H       
  35 H35            1.9399    11.4451    -2.4367 H       
  36 H36            0.6877    12.6946    -2.2390 H       
  37 H37            1.7595    12.2855    -0.8781 H       
  38 H38            2.3093     8.7657     0.5883 H       
  39 H39            0.9580     9.7408     0.3741 H       
@<TRIPOS>BOND
   1    1    2 1
   2    1    8 3
   3    2    3 ar
   4    2    7 ar
   5    3    4 ar
   6    3   25 1
   7    4    5 ar
   8    4   26 1
   9    5    6 ar
  10    5   11 1
  11    6    7 ar
  12    6   27 1
  13    7   28 1
  14    9   10 2
  15    9   13 1
  16    9   24 1
  17   10   11 1
  18   11   12 2
  19   12   13 1
  20   12   29 1
  21   13   14 1
  22   14   15 1
  23   14   30 1
  24   14   31 1
  25   15   16 ar
  26   15   20 ar
  27   16   17 ar
  28   16   23 1
  29   17   18 ar
  30   17   32 1
  31   18   19 ar
  32   18   33 1
  33   19   20 ar
  34   19   34 1
  35   20   21 1
  36   21   22 1
  37   22   35 1
  38   22   36 1
  39   22   37 1
  40   24   38 1
  41   24   39 1

#	End of record

