#	Name: ASD00170046
#	Creating user name:	WinNT
#	Creation time:	15. 06. 2019 18:31

#	Modifying user name:	WinNT
#	Modification time:	15. 06. 2019 18:31

#	Program:	/corina/corina34_cracker 3.40 0067  02.08.2006

@<TRIPOS>MOLECULE
ASD00170046
  35   38    0    0    0
SMALL
NO_CHARGES


@<TRIPOS>ATOM
   1 C1            -0.0175     1.4114    -0.0097 C.ar    
   2 C2             0.0017    -0.0043    -0.0198 C.ar    
   3 C3            -1.2118    -0.7140     0.0014 C.ar    
   4 C4            -2.3966    -0.0417     0.0314 C.ar    
   5 C5            -2.4353     1.3473     0.0413 C.ar    
   6 C6            -1.2631     2.0874     0.0167 C.ar    
   7 C7             1.1928     2.1175    -0.0319 C.ar    
   8 C8             2.3718     1.4351    -0.0627 C.ar    
   9 C9             2.3929     0.0424    -0.0726 C.ar    
  10 C10            1.2364    -0.6755    -0.0512 C.ar    
  11 C11           -1.3115     3.5626     0.0278 C.2     
  12 C12           -2.5571     4.2309    -0.0599 C.2     
  13 O13           -0.2796     4.2056     0.1126 O.2     
  14 C14           -3.4035     4.5049     1.1042 C.ar    
  15 C15           -4.5748     5.1729     0.7571 C.ar    
  16 S16           -4.6314     5.4586    -0.9774 S.3     
  17 C17           -3.0806     4.6867    -1.2388 C.2     
  18 N18           -2.4738     4.5515    -2.4653 N.pl3   
  19 C19           -3.1739     4.1845     2.4564 C.ar    
  20 C20           -4.0929     4.5261     3.4179 C.ar    
  21 C21           -5.2575     5.1912     3.0663 C.ar    
  22 C22           -5.4982     5.5130     1.7505 C.ar    
  23 H23           -1.2049    -1.7939    -0.0064 H       
  24 H24           -3.3220    -0.5983     0.0475 H       
  25 H25           -3.3880     1.8554     0.0645 H       
  26 H26            1.1910     3.1975    -0.0249 H       
  27 H27            3.3030     1.9818    -0.0801 H       
  28 H28            3.3404    -0.4754    -0.0971 H       
  29 H29            1.2673    -1.7550    -0.0589 H       
  30 H30           -2.9387     4.8300    -3.2698 H       
  31 H31           -1.5808     4.1776    -2.5260 H       
  32 H32           -2.2693     3.6665     2.7388 H       
  33 H33           -3.9079     4.2753     4.4520 H       
  34 H34           -5.9770     5.4571     3.8267 H       
  35 H35           -6.4073     6.0309     1.4828 H       
@<TRIPOS>BOND
   1    1    2 ar
   2    1    7 ar
   3    1    6 ar
   4    2    3 ar
   5    2   10 ar
   6    3    4 ar
   7    3   23 1
   8    4    5 ar
   9    4   24 1
  10    5    6 ar
  11    5   25 1
  12    6   11 1
  13    7    8 ar
  14    7   26 1
  15    8    9 ar
  16    8   27 1
  17    9   10 ar
  18    9   28 1
  19   10   29 1
  20   11   12 1
  21   11   13 2
  22   12   14 1
  23   12   17 2
  24   14   15 ar
  25   14   19 ar
  26   15   16 1
  27   15   22 ar
  28   16   17 1
  29   17   18 1
  30   18   30 1
  31   18   31 1
  32   19   20 ar
  33   19   32 1
  34   20   21 ar
  35   20   33 1
  36   21   22 ar
  37   21   34 1
  38   22   35 1

#	End of record

