#	Name: ASD00960200
#	Creating user name:	WinNT
#	Creation time:	15. 06. 2019 18:53

#	Modifying user name:	WinNT
#	Modification time:	15. 06. 2019 18:53

#	Program:	/corina/corina34_cracker 3.40 0067  02.08.2006

@<TRIPOS>MOLECULE
ASD00960200
  38   41    0    0    0
SMALL
NO_CHARGES


@<TRIPOS>ATOM
   1 C1            -0.0170     1.4014     0.0097 C.2     
   2 C2             0.0021    -0.0041     0.0020 C.2     
   3 N3             1.2753     1.8419    -0.0002 N.pl3   
   4 C4             2.1131     0.7550    -0.0140 C.2     
   5 C5             1.3426    -0.3972    -0.0129 C.2     
   6 N6             1.8431     3.1242     0.0012 N.2     
   7 C7             3.1425     3.2653    -0.0104 C.2     
   8 N8             3.9669     2.2224    -0.0238 N.2     
   9 C9             3.5127     0.9815    -0.0255 C.2     
  10 N10            4.3912    -0.0826    -0.0391 N.pl3   
  11 C11           -1.1734    -0.8968     0.0084 C.2     
  12 O12           -1.1386    -2.2410     0.0009 O.3     
  13 C13           -2.4115    -2.6835     0.0111 C.2     
  14 C14           -3.2111    -1.6008     0.0249 C.2     
  15 N15           -2.4286    -0.5118     0.0282 N.2     
  16 C16           -1.1737     2.2173     0.0199 C.2     
  17 O17           -2.2785     1.7068     0.0226 O.2     
  18 O18           -1.0513     3.5617     0.0266 O.3     
  19 C19           -2.2605     4.3231     0.0367 C.3     
  20 C20           -1.9285     5.7931     0.0431 C.ar    
  21 C21           -1.7821     6.4737    -1.1512 C.ar    
  22 C22           -1.4775     7.8221    -1.1453 C.ar    
  23 C23           -1.3196     8.4899     0.0547 C.ar    
  24 C24           -1.4669     7.8094     1.2489 C.ar    
  25 C25           -1.7758     6.4620     1.2431 C.ar    
  26 H26            1.7109    -1.4125    -0.0218 H       
  27 H27            3.5599     4.2614    -0.0094 H       
  28 H28            5.3478     0.0782    -0.0476 H       
  29 H29            4.0522    -0.9915    -0.0403 H       
  30 H30           -2.7307    -3.7153     0.0082 H       
  31 H31           -4.2911    -1.6079     0.0350 H       
  32 H32           -2.8462     4.0867    -0.8517 H       
  33 H33           -2.8374     4.0771     0.9282 H       
  34 H34           -1.9054     5.9520    -2.0887 H       
  35 H35           -1.3624     8.3537    -2.0783 H       
  36 H36           -1.0809     9.5431     0.0592 H       
  37 H37           -1.3433     8.3310     2.1865 H       
  38 H38           -1.8946     5.9312     2.1761 H       
@<TRIPOS>BOND
   1    1    2 2
   2    1    3 1
   3    1   16 1
   4    2   11 1
   5    2    5 1
   6    3    4 1
   7    3    6 1
   8    4    5 2
   9    4    9 1
  10    5   26 1
  11    6    7 2
  12    7    8 1
  13    7   27 1
  14    8    9 2
  15    9   10 1
  16   10   28 1
  17   10   29 1
  18   11   12 1
  19   11   15 2
  20   12   13 1
  21   13   14 2
  22   13   30 1
  23   14   15 1
  24   14   31 1
  25   16   17 2
  26   16   18 1
  27   18   19 1
  28   19   20 1
  29   19   32 1
  30   19   33 1
  31   20   21 ar
  32   20   25 ar
  33   21   22 ar
  34   21   34 1
  35   22   23 ar
  36   22   35 1
  37   23   24 ar
  38   23   36 1
  39   24   25 ar
  40   24   37 1
  41   25   38 1

#	End of record

