#	Name: ASD01881269
#	Creating user name:	WinNT
#	Creation time:	15. 06. 2019 19:42

#	Modifying user name:	WinNT
#	Modification time:	15. 06. 2019 19:42

#	Program:	/corina/corina34_cracker 3.40 0067  02.08.2006

@<TRIPOS>MOLECULE
ASD01881269
  57   59    0    0    0
SMALL
NO_CHARGES


@<TRIPOS>ATOM
   1 C1            -0.0162     1.3398     0.0094 C.2     
   2 N2             0.0021    -0.0041     0.0020 N.am    
   3 C3             1.3975    -0.4574    -0.0137 C.3     
   4 C4             2.2453     0.7903    -0.0151 C.ar    
   5 C5             3.6007     1.0050    -0.0273 C.ar    
   6 C6             4.0976     2.3066    -0.0255 C.ar    
   7 C7             3.2198     3.3874    -0.0113 C.ar    
   8 C8             1.8605     3.1761     0.0009 C.ar    
   9 C9             1.3571     1.8711    -0.0009 C.ar    
  10 O10           -1.0238     2.0204     0.0181 O.2     
  11 N11            5.4706     2.5264    -0.0373 N.pl3   
  12 C12            5.9934     3.8949    -0.0354 C.3     
  13 N13            9.4949     3.8132    -1.3147 N.ar    
  14 C14            8.1855     3.8458    -1.2628 C.ar    
  15 C15            7.4998     3.8572    -0.0498 C.ar    
  16 C16            8.1942     3.8346     1.1260 C.ar    
  17 C17            9.6003     3.8001     1.0663 C.ar    
  18 C18           10.3812     3.7749     2.2327 C.ar    
  19 C19           11.7389     3.7413     2.1330 C.ar    
  20 C20           12.3642     3.7319     0.8881 C.ar    
  21 C21           11.6380     3.7556    -0.2628 C.ar    
  22 C22           10.2342     3.7902    -0.2011 C.ar    
  23 C23           -1.1772    -0.8732     0.0086 C.3     
  24 C24           -1.6012    -1.1686    -1.4315 C.3     
  25 C25           -2.8328    -2.0763    -1.4246 C.3     
  26 C26           -3.2567    -2.3716    -2.8648 C.3     
  27 H27            1.6082    -1.0527     0.8747 H       
  28 H28            1.5912    -1.0431    -0.9124 H       
  29 H29            4.2810     0.1663    -0.0380 H       
  30 H30            3.6076     4.3954    -0.0095 H       
  31 H31            1.1827     4.0169     0.0123 H       
  32 H32            6.0822     1.7735    -0.0469 H       
  33 H33            5.6346     4.4221    -0.9194 H       
  34 H34            5.6514     4.4132     0.8604 H       
  35 H35            7.6231     3.8636    -2.1846 H       
  36 H36            7.6790     3.8433     2.0751 H       
  37 H37            9.9079     3.7826     3.2035 H       
  38 H38           12.3388     3.7220     3.0308 H       
  39 H39           13.4426     3.7058     0.8354 H       
  40 H40           12.1384     3.7476    -1.2198 H       
  41 H41           -0.9369    -1.8078     0.5155 H       
  42 H42           -1.9929    -0.3750     0.5326 H       
  43 H43           -1.8414    -0.2340    -1.9384 H       
  44 H44           -0.7855    -1.6668    -1.9555 H       
  45 H45           -2.5925    -3.0109    -0.9177 H       
  46 H46           -3.6484    -1.5780    -0.9007 H       
  47 H47           -3.4970    -1.4371    -3.3717 H       
  48 H48           -2.4410    -2.8699    -3.3887 H       
  49 H49           -4.1341    -3.0183    -2.8598 H       
  50 C50           19.6140    11.4104     9.3503 C.2     
  51 C51           19.6344     9.9035     9.3420 C.3     
  52 O52           20.6520    12.0287     9.3437 O.2     
  53 O53           18.4426    12.0656     9.3594 O.3     
  54 F54           20.9596     9.4552     9.3269 F       
  55 F55           18.9923     9.4221    10.4879 F       
  56 F56           18.9705     9.4344     8.2035 F       
  57 H57           18.4801    13.0319     9.3645 H       
@<TRIPOS>BOND
   1    1    2 am
   2    1    9 1
   3    1   10 2
   4    2    3 1
   5    2   23 1
   6    3    4 1
   7    3   27 1
   8    3   28 1
   9    4    5 ar
  10    4    9 ar
  11    5    6 ar
  12    5   29 1
  13    6    7 ar
  14    6   11 1
  15    7    8 ar
  16    7   30 1
  17    8    9 ar
  18    8   31 1
  19   11   12 1
  20   11   32 1
  21   12   15 1
  22   12   33 1
  23   12   34 1
  24   13   14 ar
  25   13   22 ar
  26   14   15 ar
  27   14   35 1
  28   15   16 ar
  29   16   17 ar
  30   16   36 1
  31   17   18 ar
  32   17   22 ar
  33   18   19 ar
  34   18   37 1
  35   19   20 ar
  36   19   38 1
  37   20   21 ar
  38   20   39 1
  39   21   22 ar
  40   21   40 1
  41   23   24 1
  42   23   41 1
  43   23   42 1
  44   24   25 1
  45   24   43 1
  46   24   44 1
  47   25   26 1
  48   25   45 1
  49   25   46 1
  50   26   47 1
  51   26   48 1
  52   26   49 1
  53   50   51 1
  54   50   52 2
  55   50   53 1
  56   51   54 1
  57   51   55 1
  58   51   56 1
  59   53   57 1

#	End of record

