#	Name: ASD03430454
#	Creating user name:	WinNT
#	Creation time:	15. 06. 2019 20:41

#	Modifying user name:	WinNT
#	Modification time:	15. 06. 2019 20:41

#	Program:	/corina/corina34_cracker 3.40 0067  02.08.2006

@<TRIPOS>MOLECULE
ASD03430454
  33   35    0    0    0
SMALL
NO_CHARGES


@<TRIPOS>ATOM
   1 N1            -0.0162     1.3403     0.0094 N.am    
   2 C2             0.0021    -0.0041     0.0020 C.2     
   3 C3             1.4384    -0.4347    -0.0140 C.2     
   4 C4             2.2077     0.8172    -0.0146 C.ar    
   5 C5             3.5887     1.0925    -0.0263 C.ar    
   6 C6             4.0405     2.4159    -0.0235 C.ar    
   7 C7             3.0823     3.4520    -0.0088 C.ar    
   8 C8             1.7368     3.1764     0.0030 C.ar    
   9 C9             1.2756     1.8638    -0.0001 C.ar    
  10 S10            4.9930     0.0287    -0.0455 S.3     
  11 C11            6.0640     1.4230    -0.0482 C.2     
  12 N12            5.3853     2.5076    -0.0359 N.2     
  13 O13           -0.9661    -0.7349     0.0079 O.2     
  14 O14            1.8709    -1.5693    -0.0242 O.2     
  15 C15           -1.2366     2.1505     0.0198 C.3     
  16 C16           -1.6542     2.4253     1.4658 C.3     
  17 C17           -2.9288     3.2715     1.4766 C.3     
  18 C18           -3.4159     3.4415     2.9170 C.3     
  19 C19           -2.6337     4.6458     0.8725 C.3     
  20 H20            3.4131     4.4801    -0.0065 H       
  21 H21            1.0269     3.9902     0.0145 H       
  22 H22            7.1427     1.3713    -0.0584 H       
  23 H23           -1.0497     3.0955    -0.4902 H       
  24 H24           -2.0342     1.6126    -0.4927 H       
  25 H25           -1.8411     1.4803     1.9758 H       
  26 H26           -0.8566     2.9632     1.9783 H       
  27 H27           -3.7001     2.7741     0.8886 H       
  28 H28           -2.6445     3.9389     3.5051 H       
  29 H29           -4.3239     4.0444     2.9247 H       
  30 H30           -3.6261     2.4624     3.3474 H       
  31 H31           -1.8624     5.1432     1.4605 H       
  32 H32           -2.2867     4.5247    -0.1537 H       
  33 H33           -3.5418     5.2487     0.8802 H       
@<TRIPOS>BOND
   1    1    2 am
   2    1    9 1
   3    1   15 1
   4    2    3 1
   5    2   13 2
   6    3    4 1
   7    3   14 2
   8    4    5 ar
   9    4    9 ar
  10    5    6 ar
  11    5   10 1
  12    6    7 ar
  13    6   12 1
  14    7    8 ar
  15    7   20 1
  16    8    9 ar
  17    8   21 1
  18   10   11 1
  19   11   12 2
  20   11   22 1
  21   15   16 1
  22   15   23 1
  23   15   24 1
  24   16   17 1
  25   16   25 1
  26   16   26 1
  27   17   18 1
  28   17   19 1
  29   17   27 1
  30   18   28 1
  31   18   29 1
  32   18   30 1
  33   19   31 1
  34   19   32 1
  35   19   33 1

#	End of record

