#	Name: ASD01885043
#	Creating user name:	WinNT
#	Creation time:	15. 06. 2019 19:49

#	Modifying user name:	WinNT
#	Modification time:	15. 06. 2019 19:49

#	Program:	/corina/corina34_cracker 3.40 0067  02.08.2006

@<TRIPOS>MOLECULE
ASD01885043
  45   48    0    0    0
SMALL
NO_CHARGES


@<TRIPOS>ATOM
   1 C1             0.1253     1.4466     0.4939 C.2     
   2 C2            -0.0678     0.1292     0.0447 C.2     
   3 C3             1.0009    -0.5721    -0.4439 C.2     
   4 C4             2.2735     0.0379    -0.4877 C.2     
   5 C5             2.4360     1.3023    -0.0517 C.2     
   6 N6             1.3769     2.0102     0.4372 N.pl3   
   7 N7            -0.0166     3.4317     1.2603 N.2     
   8 N8            -0.6848     2.3630     1.0016 N.2     
   9 C9             1.2394     3.2722     0.9363 C.2     
  10 N10            0.8346    -1.8783    -0.8942 N.pl3   
  11 C11           -1.4345    -0.5034     0.1006 C.3     
  12 F12           -1.5026    -1.3701     1.1967 F       
  13 F13           -2.4053     0.4949     0.2345 F       
  14 F14           -1.6641    -1.2223    -1.0773 F       
  15 C15            2.3358     4.2948     1.0882 C.3     
  16 C16            2.9855     4.1453     2.4653 C.3     
  17 F17            3.5255     2.8607     2.5892 F       
  18 F18            4.0033     5.0947     2.6063 F       
  19 F19            2.0216     4.3438     3.4597 F       
  20 C20            1.9528    -2.5835    -1.5254 C.3     
  21 C21            1.5073    -3.9916    -1.9252 C.3     
  22 C22            2.5693    -4.9328    -2.4970 C.3     
  23 C23            1.5028    -4.3343    -3.4163 C.3     
  24 C24            2.4553    -6.3973    -2.1601 C.ar    
  25 C25            3.4806    -7.0324    -1.4845 C.ar    
  26 C26            3.3770    -8.3752    -1.1746 C.ar    
  27 C27            2.2456    -9.0844    -1.5409 C.ar    
  28 C28            1.2193    -8.4471    -2.2175 C.ar    
  29 C29            1.3229    -7.1030    -2.5217 C.ar    
  30 F30            2.1433   -10.3972    -1.2388 F       
  31 H31            3.1203    -0.5114    -0.8720 H       
  32 H32            3.4137     1.7597    -0.0891 H       
  33 H33           -0.0218    -2.3219    -0.7901 H       
  34 H34            3.0868     4.1402     0.3134 H       
  35 H35            1.9150     5.2957     0.9917 H       
  36 H36            2.2720    -2.0376    -2.4131 H       
  37 H37            2.7830    -2.6511    -0.8223 H       
  38 H38            0.7261    -4.4315    -1.3053 H       
  39 H39            3.5854    -4.5490    -2.5884 H       
  40 H40            0.7186    -4.9997    -3.7774 H       
  41 H41            1.8172    -3.5567    -4.1124 H       
  42 H42            4.3632    -6.4792    -1.1992 H       
  43 H43            4.1783    -8.8713    -0.6471 H       
  44 H44            0.3363    -8.9993    -2.5037 H       
  45 H45            0.5207    -6.6048    -3.0458 H       
@<TRIPOS>BOND
   1    1    2 1
   2    1    6 1
   3    1    8 2
   4    2    3 2
   5    2   11 1
   6    3    4 1
   7    3   10 1
   8    4    5 2
   9    4   31 1
  10    5    6 1
  11    5   32 1
  12    6    9 1
  13    7    8 1
  14    7    9 2
  15    9   15 1
  16   10   20 1
  17   10   33 1
  18   11   12 1
  19   11   13 1
  20   11   14 1
  21   15   16 1
  22   15   34 1
  23   15   35 1
  24   16   17 1
  25   16   18 1
  26   16   19 1
  27   20   21 1
  28   20   36 1
  29   20   37 1
  30   21   22 1
  31   21   23 1
  32   21   38 1
  33   22   23 1
  34   22   24 1
  35   22   39 1
  36   23   40 1
  37   23   41 1
  38   24   25 ar
  39   24   29 ar
  40   25   26 ar
  41   25   42 1
  42   26   27 ar
  43   26   43 1
  44   27   28 ar
  45   27   30 1
  46   28   29 ar
  47   28   44 1
  48   29   45 1

#	End of record

