#	Name: ASD00840679
#	Creating user name:	WinNT
#	Creation time:	15. 06. 2019 18:39

#	Modifying user name:	WinNT
#	Modification time:	15. 06. 2019 18:39

#	Program:	/corina/corina34_cracker 3.40 0067  02.08.2006

@<TRIPOS>MOLECULE
ASD00840679
  95  100    0    0    0
SMALL
NO_CHARGES


@<TRIPOS>ATOM
   1 N1             0.9768     1.4222    -0.8226 N.ar    
   2 C2             1.2531     0.1317    -0.9078 C.ar    
   3 C3             1.1964    -0.6801     0.2181 C.ar    
   4 C4             0.8461    -0.1208     1.4344 C.ar    
   5 C5             0.5635     1.2376     1.4816 C.ar    
   6 C6             0.6398     1.9841     0.3229 C.ar    
   7 C7             1.5116    -2.1502     0.1162 C.3     
   8 C8             1.2553    -2.8408     1.4387 C.2     
   9 C9             0.6853    -2.7986    -0.9964 C.3     
  10 C10           -0.7766    -2.5130    -0.7679 C.2     
  11 N11           -1.7037    -3.0475    -1.5872 N.am    
  12 O12           -1.1189    -1.8021     0.1532 O.2     
  13 C13           -3.1213    -2.6863    -1.4502 C.3     
  14 C14           -3.9460    -3.9699    -1.3115 C.3     
  15 C15           -3.6444    -4.8952    -2.4926 C.3     
  16 C16           -2.1609    -5.2708    -2.4828 C.3     
  17 C17           -1.3153    -3.9977    -2.6383 C.3     
  18 C18           -4.4921    -6.1636    -2.3758 C.3     
  19 C19           -5.9769    -5.7895    -2.3872 C.3     
  20 C20           -6.8198    -7.0656    -2.3316 C.3     
  21 N21           -6.5017    -7.9147    -3.4867 N.3     
  22 C22           -5.0919    -8.3255    -3.4715 C.3     
  23 C23           -4.1974    -7.0870    -3.5612 C.3     
  24 C24           -7.3900    -9.0834    -3.5415 C.3     
  25 O25            0.1915    -2.9192     2.0158 O.2     
  26 N26            2.4268    -3.3513     1.8529 N.am    
  27 C27            2.9891    -2.3599    -0.1261 C.ar    
  28 C28            3.4635    -3.0889     0.9617 C.ar    
  29 C29            3.8283    -1.9796    -1.1425 C.ar    
  30 C30            5.1834    -2.3258    -1.0926 C.ar    
  31 C31            5.6674    -3.0586    -0.0022 C.ar    
  32 C32            4.8136    -3.4359     1.0122 C.ar    
  33 F33            6.9738    -3.3979     0.0553 F       
  34 C34            2.3395    -5.8970     2.8951 C.ar    
  35 C35            1.0857    -6.3222     2.4811 C.ar    
  36 C36            3.3725    -6.8070     3.0122 C.ar    
  37 C37            3.1575    -8.1403     2.7167 C.ar    
  38 C38            1.9085    -8.5667     2.3038 C.ar    
  39 C39            0.8724    -7.6610     2.1856 C.ar    
  40 H40            1.7431    -9.6089     2.0735 H       
  41 O41            0.0679    -5.4291     2.3655 O.3     
  42 C42           -1.1958    -5.9379     1.9340 C.3     
  43 C43           -2.2093    -4.7939     1.8642 C.3     
  44 C44           -7.2010    -9.8054    -4.8772 C.3     
  45 S45            2.6163    -4.1965     3.2643 S.o2    
  46 O46            3.9872    -4.0811     3.6200 O.2     
  47 O47            1.5550    -3.7935     4.1190 O.2     
  48 O48            1.5948    -0.4046    -2.1063 O.3     
  49 C49            2.0570    -0.2834    -4.4753 C.3     
  50 C50            1.5266     0.4558    -3.2452 C.3     
  51 C51            6.0677    -1.9342    -2.1487 C.1     
  52 N52            6.7692    -1.6235    -2.9864 N.1     
  53 H53            0.7933    -0.7272     2.3265 H       
  54 H54            0.2866     1.7054     2.4149 H       
  55 H55            0.4214     3.0413     0.3543 H       
  56 H56            0.9891    -2.3896    -1.9600 H       
  57 H57            0.8503    -3.8760    -0.9907 H       
  58 H58           -3.2566    -2.0675    -0.5631 H       
  59 H59           -3.4456    -2.1373    -2.3342 H       
  60 H60           -3.6841    -4.4718    -0.3801 H       
  61 H61           -5.0073    -3.7216    -1.3056 H       
  62 H62           -3.8833    -4.3836    -3.4250 H       
  63 H63           -1.9158    -5.7605    -1.5403 H       
  64 H64           -1.9517    -5.9485    -3.3106 H       
  65 H65           -1.4936    -3.5582    -3.6197 H       
  66 H66           -0.2590    -4.2455    -2.5330 H       
  67 H67           -4.2530    -6.6771    -1.4446 H       
  68 H68           -6.2019    -5.1667    -1.5215 H       
  69 H69           -6.2070    -5.2410    -3.3006 H       
  70 H70           -6.5994    -7.6067    -1.4114 H       
  71 H71           -7.8776    -6.8034    -2.3540 H       
  72 H72           -4.8795    -8.8606    -2.5460 H       
  73 H73           -4.8947    -8.9783    -4.3218 H       
  74 H74           -4.3995    -6.5588    -4.4930 H       
  75 H75           -3.1510    -7.3911    -3.5341 H       
  76 H76           -7.1478    -9.7625    -2.7240 H       
  77 H77           -8.4258    -8.7572    -3.4482 H       
  78 H78            3.4442    -1.4148    -1.9791 H       
  79 H79            5.1923    -4.0012     1.8509 H       
  80 H80            4.3488    -6.4764     3.3345 H       
  81 H81            3.9665    -8.8500     2.8082 H       
  82 H82           -0.1030    -7.9947     1.8637 H       
  83 H83           -1.0882    -6.3887     0.9474 H       
  84 H84           -1.5451    -6.6903     2.6410 H       
  85 H85           -2.3168    -4.3432     2.8508 H       
  86 H86           -1.8599    -4.0415     1.1572 H       
  87 H87           -3.1732    -5.1820     1.5351 H       
  88 H88           -7.4432    -9.1263    -5.6947 H       
  89 H89           -6.1652   -10.1316    -4.9705 H       
  90 H90           -7.8602   -10.6726    -4.9179 H       
  91 H91            2.0870     0.3993    -5.3245 H       
  92 H92            3.0615    -0.6540    -4.2714 H       
  93 H93            1.4002    -1.1220    -4.7064 H       
  94 H94            0.4913     0.7503    -3.4166 H       
  95 H95            2.1322     1.3443    -3.0661 H       
@<TRIPOS>BOND
   1    1    2 ar
   2    1    6 ar
   3    2    3 ar
   4    2   48 1
   5    3    4 ar
   6    3    7 1
   7    4    5 ar
   8    4   53 1
   9    5    6 ar
  10    5   54 1
  11    6   55 1
  12    7    8 1
  13    7    9 1
  14    7   27 1
  15    8   25 2
  16    8   26 am
  17    9   10 1
  18    9   56 1
  19    9   57 1
  20   10   11 am
  21   10   12 2
  22   11   13 1
  23   11   17 1
  24   13   14 1
  25   13   58 1
  26   13   59 1
  27   14   15 1
  28   14   60 1
  29   14   61 1
  30   15   16 1
  31   15   18 1
  32   15   62 1
  33   16   17 1
  34   16   63 1
  35   16   64 1
  36   17   65 1
  37   17   66 1
  38   18   19 1
  39   18   23 1
  40   18   67 1
  41   19   20 1
  42   19   68 1
  43   19   69 1
  44   20   21 1
  45   20   70 1
  46   20   71 1
  47   21   22 1
  48   21   24 1
  49   22   23 1
  50   22   72 1
  51   22   73 1
  52   23   74 1
  53   23   75 1
  54   24   44 1
  55   24   76 1
  56   24   77 1
  57   26   45 am
  58   26   28 1
  59   27   28 ar
  60   27   29 ar
  61   28   32 ar
  62   29   30 ar
  63   29   78 1
  64   30   31 ar
  65   30   51 1
  66   31   32 ar
  67   31   33 1
  68   32   79 1
  69   34   35 ar
  70   34   36 ar
  71   34   45 1
  72   35   41 1
  73   35   39 ar
  74   36   37 ar
  75   36   80 1
  76   37   38 ar
  77   37   81 1
  78   38   39 ar
  79   38   40 1
  80   39   82 1
  81   41   42 1
  82   42   43 1
  83   42   83 1
  84   42   84 1
  85   43   85 1
  86   43   86 1
  87   43   87 1
  88   44   88 1
  89   44   89 1
  90   44   90 1
  91   45   46 2
  92   45   47 2
  93   48   50 1
  94   49   50 1
  95   49   91 1
  96   49   92 1
  97   49   93 1
  98   50   94 1
  99   50   95 1
 100   51   52 3

#	End of record

