#	Name: ASD03090463
#	Creating user name:	WinNT
#	Creation time:	15. 06. 2019 20:28

#	Modifying user name:	WinNT
#	Modification time:	15. 06. 2019 20:28

#	Program:	/corina/corina34_cracker 3.40 0067  02.08.2006

@<TRIPOS>MOLECULE
ASD03090463
  39   41    0    0    0
SMALL
NO_CHARGES


@<TRIPOS>ATOM
   1 C1            -0.0187     1.5020     0.0192 C.2     
   2 C2             0.0008    -0.0048     0.0174 C.3     
   3 O3             1.0237     2.1221     0.0154 O.2     
   4 N4            -1.1946     2.1607     0.0195 N.am    
   5 N5             4.2772    -1.4566    -2.2029 N.pl3   
   6 C6             5.4677    -1.8601    -1.6624 C.2     
   7 C7             5.3942    -1.8340    -0.3223 C.2     
   8 C8             4.0463    -1.3763     0.0237 C.ar    
   9 C9             3.3781    -1.1485     1.2284 C.ar    
  10 C10            2.0840    -0.7107     1.2139 C.ar    
  11 C11            1.4280    -0.4887     0.0107 C.ar    
  12 C12            2.0684    -0.7066    -1.1893 C.ar    
  13 C13            3.3860    -1.1533    -1.1982 C.ar    
  14 C14           -2.1787     4.3018    -0.5315 C.ar    
  15 C15           -1.2153     3.5574     0.1329 C.ar    
  16 C16           -0.2688     4.2160     0.9151 C.ar    
  17 C17           -0.3280     5.5958     0.9983 C.ar    
  18 C18           -1.3216     6.2740     0.3046 C.ar    
  19 N19           -2.2044     5.6167    -0.4283 N.ar    
  20 O20           -1.3876     7.6278     0.3802 O.3     
  21 C21           -2.4318     8.2685    -0.3555 C.3     
  22 C22           -2.3462     9.7821    -0.1495 C.3     
  23 H23           -0.5044    -0.3758     0.9091 H       
  24 H24           -0.5121    -0.3738    -0.8708 H       
  25 H25           -2.0265     1.6681    -0.0589 H       
  26 H26            4.0903    -1.3902    -3.1524 H       
  27 H27            6.3376    -2.1562    -2.2300 H       
  28 H28            6.1797    -2.0999     0.3695 H       
  29 H29            3.8820    -1.3191     2.1683 H       
  30 H30            1.5675    -0.5350     2.1460 H       
  31 H31            1.5494    -0.5314    -2.1200 H       
  32 H32           -2.9134     3.7997    -1.1435 H       
  33 H33            0.4929     3.6624     1.4441 H       
  34 H34            0.3895     6.1387     1.5956 H       
  35 H35           -2.3228     8.0393    -1.4155 H       
  36 H36           -3.3983     7.9080    -0.0033 H       
  37 H37           -2.4552    10.0113     0.9105 H       
  38 H38           -1.3797    10.1426    -0.5017 H       
  39 H39           -3.1427    10.2708    -0.7107 H       
@<TRIPOS>BOND
   1    1    2 1
   2    1    3 2
   3    1    4 am
   4    2   11 1
   5    2   23 1
   6    2   24 1
   7    4   15 1
   8    4   25 1
   9    5    6 1
  10    5   13 1
  11    5   26 1
  12    6    7 2
  13    6   27 1
  14    7    8 1
  15    7   28 1
  16    8    9 ar
  17    8   13 ar
  18    9   10 ar
  19    9   29 1
  20   10   11 ar
  21   10   30 1
  22   11   12 ar
  23   12   13 ar
  24   12   31 1
  25   14   15 ar
  26   14   19 ar
  27   14   32 1
  28   15   16 ar
  29   16   17 ar
  30   16   33 1
  31   17   18 ar
  32   17   34 1
  33   18   19 ar
  34   18   20 1
  35   20   21 1
  36   21   22 1
  37   21   35 1
  38   21   36 1
  39   22   37 1
  40   22   38 1
  41   22   39 1

#	End of record

