#	Name: ASD01470043
#	Creating user name:	WinNT
#	Creation time:	15. 06. 2019 19:21

#	Modifying user name:	WinNT
#	Modification time:	15. 06. 2019 19:21

#	Program:	/corina/corina34_cracker 3.40 0067  02.08.2006

@<TRIPOS>MOLECULE
ASD01470043
  87   93    0    0    0
SMALL
NO_CHARGES


@<TRIPOS>ATOM
   1 N1            -1.6768     1.4954     0.5534 N.am    
   2 C2            -0.3438     1.0601     0.1458 C.3     
   3 C3             0.2185     0.0306     1.1361 C.3     
   4 C4            -0.2369    -1.3824     0.8056 C.3     
   5 C5            -1.6133    -1.3879     0.1612 C.3     
   6 N6            -2.5781    -0.6619     0.9882 N.am    
   7 C7            -2.6241     0.6818     0.9918 C.2     
   8 O8            -3.6344     1.1970     1.4301 O.2     
   9 C9            -3.5093    -1.4133     1.8334 C.3     
  10 C10           -1.9834     2.9260     0.4779 C.3     
  11 C11           -1.7101     3.5695     1.8129 C.ar    
  12 C12           -2.9358    -1.5426     3.2210 C.ar    
  13 C13           -3.0801    -0.5175     4.1101 C.ar    
  14 C14           -2.5475    -0.6388     5.3986 C.ar    
  15 C15           -1.8685    -1.8173     5.7636 C.ar    
  16 C16           -1.7373    -2.8468     4.8348 C.ar    
  17 C17           -2.2700    -2.7069     3.5848 C.ar    
  18 C18           -0.4284     3.9837     2.1299 C.ar    
  19 C19           -0.1674     4.5762     3.3534 C.ar    
  20 C20           -1.1843     4.7578     4.2664 C.ar    
  21 C21           -2.4826     4.3418     3.9535 C.ar    
  22 C22           -2.7392     3.7492     2.7132 C.ar    
  23 C23           -2.5164     0.2318     6.5693 C.2     
  24 N24           -1.8770    -0.3957     7.5147 N.2     
  25 N25           -1.4638    -1.6532     7.0625 N.pl3   
  26 C26           -0.4232     0.4296    -1.2460 C.3     
  27 O27            1.6461     0.0795     1.0959 O.3     
  28 C28            0.4206     1.2264    -2.2073 C.ar    
  29 C29            1.7236     0.8433    -2.4647 C.ar    
  30 C30            2.4976     1.5742    -3.3465 C.ar    
  31 C31            1.9685     2.6881    -3.9712 C.ar    
  32 C32            0.6652     3.0707    -3.7144 C.ar    
  33 C33           -0.1102     2.3373    -2.8360 C.ar    
  34 C34           -2.0837    -2.8337    -0.0100 C.3     
  35 O35           -0.2814    -2.1521     2.0087 O.3     
  36 C36           -1.1692    -3.5491    -0.9706 C.ar    
  37 C37           -0.0226    -4.1650    -0.5047 C.ar    
  38 C38            0.8163    -4.8212    -1.3859 C.ar    
  39 C39            0.5084    -4.8619    -2.7330 C.ar    
  40 C40           -0.6386    -4.2468    -3.1987 C.ar    
  41 C41           -1.4797    -3.5943    -2.3169 C.ar    
  42 C42           -3.5738     4.5315     4.9226 C.2     
  43 C43           -3.3197     5.2780     6.2068 C.3     
  44 O44           -4.6772     4.0870     4.6878 O.2     
  45 N45           -4.5217     5.2340     7.0432 N.pl3   
  46 C46           -4.5871     4.7915     8.3164 C.2     
  47 C47           -5.8692     4.9162     8.7310 C.2     
  48 C48           -6.6127     5.4533     7.6750 C.2     
  49 N49           -5.8048     5.6493     6.6647 N.2     
  50 H50            0.3205     1.9235     0.1096 H       
  51 H51           -0.1182     0.2852     2.1410 H       
  52 H52            0.4790    -1.8363     0.1203 H       
  53 H53           -1.5528    -0.9147    -0.8189 H       
  54 H54           -4.4622    -0.8864     1.8817 H       
  55 H55           -3.6641    -2.4059     1.4103 H       
  56 H56           -1.3589     3.3916    -0.2845 H       
  57 H57           -3.0336     3.0593     0.2184 H       
  58 H58           -3.6022     0.3826     3.8210 H       
  59 H59           -1.2183    -3.7551     5.1033 H       
  60 H60           -2.1661    -3.5080     2.8680 H       
  61 H61            0.3726     3.8436     1.4191 H       
  62 H62            0.8356     4.8969     3.5935 H       
  63 H63           -0.9790     5.2196     5.2209 H       
  64 H64           -3.7391     3.4255     2.4643 H       
  65 H65           -2.9466     1.2199     6.6392 H       
  66 H66           -0.9703    -2.3047     7.5848 H       
  67 H67           -0.0544    -0.5952    -1.2022 H       
  68 H68           -1.4588     0.4289    -1.5860 H       
  69 H69            2.0781    -0.5438     1.6959 H       
  70 H70            2.1370    -0.0270    -1.9767 H       
  71 H71            3.5159     1.2753    -3.5471 H       
  72 H72            2.5735     3.2596    -4.6595 H       
  73 H73            0.2519     3.9412    -4.2022 H       
  74 H74           -1.1284     2.6362    -2.6354 H       
  75 H75           -2.0635    -3.3391     0.9556 H       
  76 H76           -3.1005    -2.8409    -0.4026 H       
  77 H77            0.5694    -2.2216     2.4629 H       
  78 H78            0.2179    -4.1332     0.5477 H       
  79 H79            1.7124    -5.3018    -1.0221 H       
  80 H80            1.1642    -5.3740    -3.4215 H       
  81 H81           -0.8789    -4.2783    -4.2512 H       
  82 H82           -2.3759    -3.1137    -2.6807 H       
  83 H83           -2.4895     4.8136     6.7390 H       
  84 H84           -3.0719     6.3152     5.9812 H       
  85 H85           -3.7639     4.4065     8.8998 H       
  86 H86           -6.2509     4.6484     9.7052 H       
  87 H87           -7.6700     5.6725     7.6922 H       
@<TRIPOS>BOND
   1    1    2 1
   2    1   10 1
   3    1    7 am
   4    2    3 1
   5    2   26 1
   6    2   50 1
   7    3    4 1
   8    3   27 1
   9    3   51 1
  10    4    5 1
  11    4   35 1
  12    4   52 1
  13    5    6 1
  14    5   34 1
  15    5   53 1
  16    6    7 am
  17    6    9 1
  18    7    8 2
  19    9   12 1
  20    9   54 1
  21    9   55 1
  22   10   11 1
  23   10   56 1
  24   10   57 1
  25   11   18 ar
  26   11   22 ar
  27   12   13 ar
  28   12   17 ar
  29   13   14 ar
  30   13   58 1
  31   14   15 ar
  32   14   23 1
  33   15   16 ar
  34   15   25 1
  35   16   17 ar
  36   16   59 1
  37   17   60 1
  38   18   19 ar
  39   18   61 1
  40   19   20 ar
  41   19   62 1
  42   20   21 ar
  43   20   63 1
  44   21   22 ar
  45   21   42 1
  46   22   64 1
  47   23   24 2
  48   23   65 1
  49   24   25 1
  50   25   66 1
  51   26   28 1
  52   26   67 1
  53   26   68 1
  54   27   69 1
  55   28   29 ar
  56   28   33 ar
  57   29   30 ar
  58   29   70 1
  59   30   31 ar
  60   30   71 1
  61   31   32 ar
  62   31   72 1
  63   32   33 ar
  64   32   73 1
  65   33   74 1
  66   34   36 1
  67   34   75 1
  68   34   76 1
  69   35   77 1
  70   36   37 ar
  71   36   41 ar
  72   37   38 ar
  73   37   78 1
  74   38   39 ar
  75   38   79 1
  76   39   40 ar
  77   39   80 1
  78   40   41 ar
  79   40   81 1
  80   41   82 1
  81   42   43 1
  82   42   44 2
  83   43   45 1
  84   43   83 1
  85   43   84 1
  86   45   46 1
  87   45   49 1
  88   46   47 2
  89   46   85 1
  90   47   48 1
  91   47   86 1
  92   48   49 2
  93   48   87 1

#	End of record

