#	Name: ASD01910194
#	Creating user name:	WinNT
#	Creation time:	15. 06. 2019 19:55

#	Modifying user name:	WinNT
#	Modification time:	15. 06. 2019 19:55

#	Program:	/corina/corina34_cracker 3.40 0067  02.08.2006

@<TRIPOS>MOLECULE
ASD01910194
  39   41    0    0    0
SMALL
NO_CHARGES


@<TRIPOS>ATOM
   1 C1             0.1653     1.6649    -0.3731 C.ar    
   2 C2             0.1017     0.2866    -0.3065 C.ar    
   3 C3             1.2660    -0.4580    -0.1615 C.ar    
   4 C4             2.4933     0.1843    -0.0842 C.ar    
   5 C5             2.5539     1.5691    -0.1520 C.ar    
   6 C6             1.3861     2.3077    -0.2964 C.ar    
   7 N7             3.7889     2.2205    -0.0740 N.am    
   8 C8             4.0032     3.3461    -0.7837 C.2     
   9 C9             5.2632     4.0996    -0.6117 C.ar    
  10 N10            1.2006    -1.8533    -0.0932 N.am    
  11 C11            2.1796    -2.6014    -0.6395 C.2     
  12 C12            5.4881     5.2656    -1.3451 C.ar    
  13 C13            6.6659     5.9651    -1.1800 C.ar    
  14 C14            7.6236     5.5132    -0.2902 C.ar    
  15 C15            7.4074     4.3570     0.4410 C.ar    
  16 C16            6.2307     3.6512     0.2892 C.ar    
  17 O17            3.1606    -2.0645    -1.1162 O.2     
  18 O18            3.1602     3.7416    -1.5652 O.2     
  19 C19            2.0605    -4.0745    -0.6589 C.ar    
  20 Cl20           8.6155     3.7979     1.5553 Cl      
  21 C21            3.0704    -4.8629    -1.2233 C.ar    
  22 C22            2.9105    -6.2376    -1.2158 C.ar    
  23 C23            1.7694    -6.7834    -0.6564 C.ar    
  24 N24            0.8335    -6.0154    -0.1317 N.ar    
  25 C25            0.9420    -4.7034    -0.1096 C.ar    
  26 H26           -0.7406     2.2411    -0.4900 H       
  27 H27           -0.8540    -0.2127    -0.3667 H       
  28 H28            3.3996    -0.3921     0.0288 H       
  29 H29            1.4325     3.3854    -0.3492 H       
  30 H30            4.4914     1.8622     0.4908 H       
  31 H31            0.4507    -2.2827     0.3474 H       
  32 H32            4.7417     5.6195    -2.0409 H       
  33 H33            6.8406     6.8674    -1.7472 H       
  34 H34            8.5441     6.0641    -0.1653 H       
  35 H35            6.0625     2.7499     0.8599 H       
  36 H36            3.9512    -4.4100    -1.6538 H       
  37 H37            3.6688    -6.8774    -1.6426 H       
  38 H38            1.6422    -7.8559    -0.6492 H       
  39 H39            0.1548    -4.1083     0.3291 H       
@<TRIPOS>BOND
   1    1    2 ar
   2    1    6 ar
   3    1   26 1
   4    2    3 ar
   5    2   27 1
   6    3    4 ar
   7    3   10 1
   8    4    5 ar
   9    4   28 1
  10    5    6 ar
  11    5    7 1
  12    6   29 1
  13    7    8 am
  14    7   30 1
  15    8    9 1
  16    8   18 2
  17    9   12 ar
  18    9   16 ar
  19   10   11 am
  20   10   31 1
  21   11   17 2
  22   11   19 1
  23   12   13 ar
  24   12   32 1
  25   13   14 ar
  26   13   33 1
  27   14   15 ar
  28   14   34 1
  29   15   16 ar
  30   15   20 1
  31   16   35 1
  32   19   21 ar
  33   19   25 ar
  34   21   22 ar
  35   21   36 1
  36   22   23 ar
  37   22   37 1
  38   23   24 ar
  39   23   38 1
  40   24   25 ar
  41   25   39 1

#	End of record

