#	Name: ASD01910040
#	Creating user name:	WinNT
#	Creation time:	15. 06. 2019 19:55

#	Modifying user name:	WinNT
#	Modification time:	15. 06. 2019 19:55

#	Program:	/corina/corina34_cracker 3.40 0067  02.08.2006

@<TRIPOS>MOLECULE
ASD01910040
  43   46    0    0    0
SMALL
NO_CHARGES


@<TRIPOS>ATOM
   1 C1            -0.0167     1.3769     0.0096 C.ar    
   2 C2             0.0021    -0.0041     0.0020 C.ar    
   3 C3             1.2081    -0.6806    -0.0127 C.ar    
   4 C4             2.3987     0.0227    -0.0203 C.ar    
   5 C5             2.3866     1.4038    -0.0132 C.ar    
   6 C6             1.1772     2.0861     0.0020 C.ar    
   7 N7             1.1616     3.4868     0.0088 N.pl3   
   8 C8             0.2439     4.2803    -0.6104 C.2     
   9 C9             0.5822     5.5730    -0.3625 C.2     
  10 C10            1.7432     5.5692     0.4334 C.2     
  11 N11            2.0835     4.3173     0.6585 N.2     
  12 N12           -0.8452     3.8450    -1.3630 N.am    
  13 C13           -1.6792     4.7432    -1.9234 C.2     
  14 C14           -2.8339     4.2818    -2.7213 C.ar    
  15 C15           -3.6995     5.2099    -3.3030 C.ar    
  16 C16           -4.7765     4.7724    -4.0472 C.ar    
  17 C17           -4.9988     3.4150    -4.2170 C.ar    
  18 C18           -4.1429     2.4902    -3.6418 C.ar    
  19 C19           -3.0605     2.9156    -2.9012 C.ar    
  20 C20            2.4568     6.7689     0.9369 C.ar    
  21 C21            3.6008     6.6249     1.7194 C.ar    
  22 C22            4.2605     7.7441     2.1851 C.ar    
  23 C23            3.7881     9.0070     1.8765 C.ar    
  24 C24            2.6530     9.1558     1.1002 C.ar    
  25 C25            1.9886     8.0435     0.6243 C.ar    
  26 O26           -1.4813     5.9333    -1.7725 O.2     
  27 Cl27          -5.8547     5.9244    -4.7712 Cl      
  28 Cl28          -6.3556     2.8716    -5.1537 Cl      
  29 H29           -0.9589     1.9047     0.0170 H       
  30 H30           -0.9261    -0.5562     0.0079 H       
  31 H31            1.2201    -1.7605    -0.0179 H       
  32 H32            3.3389    -0.5085    -0.0314 H       
  33 H33            3.3168     1.9525    -0.0191 H       
  34 H34            0.0545     6.4474    -0.7140 H       
  35 H35           -1.0031     2.8955    -1.4834 H       
  36 H36           -3.5269     6.2678    -3.1707 H       
  37 H37           -4.3212     1.4338    -3.7776 H       
  38 H38           -2.3939     2.1932    -2.4537 H       
  39 H39            3.9703     5.6393     1.9612 H       
  40 H40            5.1471     7.6336     2.7920 H       
  41 H41            4.3072     9.8801     2.2434 H       
  42 H42            2.2885    10.1441     0.8622 H       
  43 H43            1.1025     8.1608     0.0183 H       
@<TRIPOS>BOND
   1    1    2 ar
   2    1    6 ar
   3    1   29 1
   4    2    3 ar
   5    2   30 1
   6    3    4 ar
   7    3   31 1
   8    4    5 ar
   9    4   32 1
  10    5    6 ar
  11    5   33 1
  12    6    7 1
  13    7    8 1
  14    7   11 1
  15    8    9 2
  16    8   12 1
  17    9   10 1
  18    9   34 1
  19   10   11 2
  20   10   20 1
  21   12   13 am
  22   12   35 1
  23   13   14 1
  24   13   26 2
  25   14   15 ar
  26   14   19 ar
  27   15   16 ar
  28   15   36 1
  29   16   17 ar
  30   16   27 1
  31   17   18 ar
  32   17   28 1
  33   18   19 ar
  34   18   37 1
  35   19   38 1
  36   20   21 ar
  37   20   25 ar
  38   21   22 ar
  39   21   39 1
  40   22   23 ar
  41   22   40 1
  42   23   24 ar
  43   23   41 1
  44   24   25 ar
  45   24   42 1
  46   25   43 1

#	End of record

