#	Name: ASD01141098
#	Creating user name:	WinNT
#	Creation time:	15. 06. 2019 19:01

#	Modifying user name:	WinNT
#	Modification time:	15. 06. 2019 19:01

#	Program:	/corina/corina34_cracker 3.40 0067  02.08.2006

@<TRIPOS>MOLECULE
ASD01141098
  45   48    0    0    0
SMALL
NO_CHARGES


@<TRIPOS>ATOM
   1 C1            -0.0170     1.4017     0.0097 C.ar    
   2 C2             0.0021    -0.0041     0.0020 C.ar    
   3 C3             1.1960     2.1036     0.0019 C.ar    
   4 C4            -1.4158     1.8474     0.0314 C.2     
   5 N5             1.1252    -0.6738    -0.0127 N.ar    
   6 C6            -1.4449    -0.4402     0.0140 C.3     
   7 C7             2.3947     1.3488    -0.0134 C.ar    
   8 N8             1.2218     3.4806     0.0085 N.pl3   
   9 O9            -1.7740     3.0097     0.0425 O.2     
  10 N10           -2.2442     0.7894     0.0372 N.am    
  11 C11            2.3161    -0.0626    -0.0211 C.ar    
  12 C12            3.6470     1.9790    -0.0211 C.ar    
  13 C13            3.5140    -0.8151    -0.0363 C.ar    
  14 C14            4.7880     1.2316    -0.0352 C.ar    
  15 C15            3.4658    -2.2954    -0.0443 C.ar    
  16 C16            4.7321    -0.1561    -0.0442 C.ar    
  17 C17            2.9220    -2.9743    -1.1396 C.ar    
  18 C18            3.9675    -3.0177     1.0372 C.ar    
  19 C19            2.8802    -4.3589    -1.1414 C.ar    
  20 O20            2.4352    -2.2769    -2.1999 O.3     
  21 C21            3.9202    -4.4010     1.0238 C.ar    
  22 C22            3.3744    -5.0692    -0.0640 C.ar    
  23 C23            1.8948    -3.0364    -3.2830 C.3     
  24 O24            4.4092    -5.1070     2.0781 O.3     
  25 C25            4.3286    -6.5315     1.9984 C.3     
  26 H26            0.3911     3.9813     0.0188 H       
  27 H27            2.0708     3.9498     0.0030 H       
  28 C28           -3.7077     0.8536     0.0578 C.3     
  29 H29           -1.6683    -1.0216    -0.8805 H       
  30 H30           -1.6506    -1.0312     0.9065 H       
  31 H31            3.7084     3.0572    -0.0163 H       
  32 H32            5.7482     1.7259    -0.0410 H       
  33 H33            5.6484    -0.7275    -0.0558 H       
  34 H34            4.3927    -2.4991     1.8838 H       
  35 H35            2.4603    -4.8843    -1.9864 H       
  36 H36            3.3393    -6.1486    -0.0698 H       
  37 H37            1.0624    -3.6411    -2.9231 H       
  38 H38            1.5423    -2.3595    -4.0612 H       
  39 H39            2.6676    -3.6880    -3.6910 H       
  40 H40            3.2850    -6.8316     1.9037 H       
  41 H41            4.8868    -6.8789     1.1291 H       
  42 H42            4.7524    -6.9705     2.9016 H       
  43 H43           -4.0255     1.8962     0.0673 H       
  44 H44           -4.1055     0.3606    -0.8292 H       
  45 H45           -4.0809     0.3519     0.9506 H       
@<TRIPOS>BOND
   1    1    2 ar
   2    1    3 ar
   3    1    4 1
   4    2    5 ar
   5    2    6 1
   6    3    7 ar
   7    3    8 1
   8    4    9 2
   9    4   10 am
  10    5   11 ar
  11    6   10 1
  12    6   29 1
  13    6   30 1
  14    7   11 ar
  15    7   12 ar
  16    8   26 1
  17    8   27 1
  18   10   28 1
  19   11   13 ar
  20   12   14 ar
  21   12   31 1
  22   13   15 1
  23   13   16 ar
  24   14   16 ar
  25   14   32 1
  26   15   17 ar
  27   15   18 ar
  28   16   33 1
  29   17   19 ar
  30   17   20 1
  31   18   21 ar
  32   18   34 1
  33   19   22 ar
  34   19   35 1
  35   20   23 1
  36   21   22 ar
  37   21   24 1
  38   22   36 1
  39   23   37 1
  40   23   38 1
  41   23   39 1
  42   24   25 1
  43   25   40 1
  44   25   41 1
  45   25   42 1
  46   28   43 1
  47   28   44 1
  48   28   45 1

#	End of record

