#	Name: ASD01912722
#	Creating user name:	WinNT
#	Creation time:	15. 06. 2019 20:00

#	Modifying user name:	WinNT
#	Modification time:	15. 06. 2019 20:00

#	Program:	/corina/corina34_cracker 3.40 0067  02.08.2006

@<TRIPOS>MOLECULE
ASD01912722
  44   47    0    0    0
SMALL
NO_CHARGES


@<TRIPOS>ATOM
   1 C1            -0.0165     1.3669     0.0096 C.2     
   2 N2             0.0021    -0.0041     0.0020 N.pl3   
   3 C3            -1.2025    -0.6923     0.0094 C.2     
   4 C4            -2.3629    -0.0504     0.0235 C.2     
   5 N5            -2.4359     1.3311     0.0317 N.am    
   6 C6            -1.3019     2.0670     0.0309 C.2     
   7 C7             1.3014     1.7837    -0.0008 C.2     
   8 C8             2.0550     0.6110    -0.0143 C.2     
   9 N9             1.2244    -0.4045    -0.0118 N.2     
  10 O10           -1.3487     3.2837     0.0380 O.2     
  11 C11           -3.6750     1.9623     0.0465 C.ar    
  12 C12            3.5594     0.5248    -0.0298 C.3     
  13 O13            4.1120     1.8427    -0.0288 O.3     
  14 C14            5.4672     1.9435    -0.0419 C.ar    
  15 C15            6.0711     3.1924    -0.0417 C.ar    
  16 C16            7.4489     3.2922    -0.0551 C.ar    
  17 C17            8.2259     2.1486    -0.0688 C.ar    
  18 C18            7.6265     0.9027    -0.0694 C.ar    
  19 C19            6.2491     0.7975    -0.0498 C.ar    
  20 N20           -4.7746     1.2253     0.0526 N.ar    
  21 C21           -5.9723     1.7906     0.0672 C.ar    
  22 C22           -4.8918     3.9181     0.0743 C.ar    
  23 N23           -3.7252     3.2853     0.0596 N.ar    
  24 C24           -6.0683     3.1694     0.0759 C.ar    
  25 C25           -7.2163     0.9401     0.0735 C.3     
  26 O26           -4.9389     5.2723     0.0881 O.3     
  27 C27           -3.6890     5.9650     0.0858 C.3     
  28 H28           -1.1951    -1.7723     0.0031 H       
  29 H29           -3.2784    -0.6234     0.0285 H       
  30 H30            1.6684     2.7994     0.0008 H       
  31 H31            3.9017    -0.0134     0.8540 H       
  32 H32            3.8838    -0.0044    -0.9258 H       
  33 H33            5.4646     4.0860    -0.0314 H       
  34 H34            7.9195     4.2643    -0.0553 H       
  35 H35            9.3029     2.2287    -0.0792 H       
  36 H36            8.2355     0.0109    -0.0808 H       
  37 H37            5.7814    -0.1759    -0.0503 H       
  38 H38           -7.0325     3.6559     0.0875 H       
  39 H39           -7.5067     0.7288     1.1027 H       
  40 H40           -8.0232     1.4728    -0.4296 H       
  41 H41           -7.0187     0.0034    -0.4478 H       
  42 H42           -3.1157     5.6829     0.9689 H       
  43 H43           -3.1287     5.7006    -0.8109 H       
  44 H44           -3.8693     7.0400     0.0978 H       
@<TRIPOS>BOND
   1    1    2 1
   2    1    7 2
   3    1    6 1
   4    2    3 1
   5    2    9 1
   6    3    4 2
   7    3   28 1
   8    4    5 1
   9    4   29 1
  10    5    6 am
  11    5   11 1
  12    6   10 2
  13    7    8 1
  14    7   30 1
  15    8    9 2
  16    8   12 1
  17   11   20 ar
  18   11   23 ar
  19   12   13 1
  20   12   31 1
  21   12   32 1
  22   13   14 1
  23   14   15 ar
  24   14   19 ar
  25   15   16 ar
  26   15   33 1
  27   16   17 ar
  28   16   34 1
  29   17   18 ar
  30   17   35 1
  31   18   19 ar
  32   18   36 1
  33   19   37 1
  34   20   21 ar
  35   21   24 ar
  36   21   25 1
  37   22   23 ar
  38   22   26 1
  39   22   24 ar
  40   24   38 1
  41   25   39 1
  42   25   40 1
  43   25   41 1
  44   26   27 1
  45   27   42 1
  46   27   43 1
  47   27   44 1

#	End of record

