#	Name: ASD04882232
#	Creating user name:	WinNT
#	Creation time:	15. 06. 2019 20:54

#	Modifying user name:	WinNT
#	Modification time:	15. 06. 2019 20:54

#	Program:	/corina/corina34_cracker 3.40 0067  02.08.2006

@<TRIPOS>MOLECULE
ASD04882232
  81   85    0    0    0
SMALL
NO_CHARGES


@<TRIPOS>ATOM
   1 N1            -0.0359     1.4222     0.0193 N.am    
   2 C2             0.1415     0.0364    -0.0459 C.ar    
   3 C3            -0.9594    -0.8090     0.0212 C.ar    
   4 C4            -0.7893    -2.1794    -0.0432 C.ar    
   5 C5             0.4747    -2.7171    -0.1741 C.ar    
   6 C6             1.5873    -1.8764    -0.2424 C.ar    
   7 C7             1.4154    -0.4938    -0.1831 C.ar    
   8 C8            -2.3432    -0.2300     0.1652 C.3     
   9 C9            -3.1649    -0.5507    -1.0865 C.3     
  10 C10           -3.0301    -0.8439     1.3882 C.3     
  11 C11           -4.4559    -0.2980     1.4940 C.3     
  12 N12           -5.2009    -0.6313     0.2732 N.3     
  13 C13           -4.5868    -0.0133    -0.9089 C.3     
  14 C14           -6.6127    -0.2445     0.3959 C.3     
  15 C15            2.9429    -2.4500    -0.3826 C.2     
  16 O16            3.9102    -1.7162    -0.4419 O.2     
  17 C17            0.8698     2.2449    -0.5459 C.2     
  18 O18            1.8774     1.7856    -1.0509 O.2     
  19 C19           -7.2868    -0.3714    -0.9459 C.ar    
  20 C20            0.6413     3.6931    -0.5523 C.2     
  21 N21            3.1061    -3.7864    -0.4448 N.am    
  22 O22           -0.4274     4.3294    -0.0296 O.3     
  23 C23           -0.2961     5.6487    -0.2198 C.2     
  24 C24            0.8650     5.8807    -0.8710 C.2     
  25 C25            1.4757     4.6349    -1.0833 C.2     
  26 C26            4.4492    -4.3547    -0.5838 C.3     
  27 C27            4.3549    -5.8810    -0.6300 C.3     
  28 C28            5.7576    -6.4745    -0.7751 C.3     
  29 N29            5.6673    -7.9361    -0.8193 N.am    
  30 C30            5.5234    -8.6533    -1.9470 C.2     
  31 C31           -1.2813     6.7010     0.2197 C.3     
  32 C32            5.7286    -8.8057     0.3614 C.3     
  33 C33            5.1659   -10.1681    -0.1006 C.3     
  34 C34            5.4555   -10.1288    -1.6201 C.3     
  35 O35            5.4569    -8.1855    -3.0640 O.2     
  36 C36           -7.4906     0.7513    -1.7259 C.ar    
  37 C37           -8.1090     0.6348    -2.9569 C.ar    
  38 C38           -8.5231    -0.6044    -3.4078 C.ar    
  39 C39           -8.3184    -1.7275    -2.6280 C.ar    
  40 C40           -7.6962    -1.6117    -1.3993 C.ar    
  41 C41           -7.4731    -2.8360    -0.5493 C.3     
  42 H42           -0.8128     1.7912     0.4678 H       
  43 H43           -1.6486    -2.8315     0.0094 H       
  44 H44            0.6035    -3.7883    -0.2234 H       
  45 H45            2.2723     0.1615    -0.2355 H       
  46 H46           -2.2748     0.8508     0.2889 H       
  47 H47           -2.7038    -0.0802    -1.9549 H       
  48 H48           -3.1994    -1.6304    -1.2323 H       
  49 H49           -3.0626    -1.9281     1.2813 H       
  50 H50           -2.4728    -0.5828     2.2878 H       
  51 H51           -4.9526    -0.7440     2.3557 H       
  52 H52           -4.4222     0.7848     1.6147 H       
  53 H53           -4.5524     1.0681    -0.7769 H       
  54 H54           -5.1784    -0.2526    -1.7925 H       
  55 H55           -7.1074    -0.8981     1.1143 H       
  56 H56           -6.6781     0.7880     0.7391 H       
  57 H57            2.3342    -4.3719    -0.3975 H       
  58 H58            1.2525     6.8441    -1.1681 H       
  59 H59            2.4192     4.4553    -1.5771 H       
  60 H60            4.9042    -3.9907    -1.5050 H       
  61 H61            5.0607    -4.0540     0.2670 H       
  62 H62            3.8999    -6.2450     0.2913 H       
  63 H63            3.7433    -6.1817    -1.4807 H       
  64 H64            6.2126    -6.1106    -1.6963 H       
  65 H65            6.3691    -6.1739     0.0756 H       
  66 H66           -2.1237     6.2237     0.7201 H       
  67 H67           -0.7931     7.3909     0.9081 H       
  68 H68           -1.6395     7.2497    -0.6514 H       
  69 H69            6.7604    -8.9171     0.6946 H       
  70 H70            5.1145    -8.3964     1.1636 H       
  71 H71            5.6983   -10.9917     0.3752 H       
  72 H72            4.0953   -10.2340     0.0934 H       
  73 H73            4.6475   -10.6058    -2.1749 H       
  74 H74            6.4075   -10.6121    -1.8397 H       
  75 H75           -7.1670     1.7196    -1.3736 H       
  76 H76           -8.2689     1.5122    -3.5661 H       
  77 H77           -9.0068    -0.6953    -4.3691 H       
  78 H78           -8.6422    -2.6958    -2.9802 H       
  79 H79           -6.5062    -3.2762    -0.7930 H       
  80 H80           -7.4894    -2.5550     0.5038 H       
  81 H81           -8.2624    -3.5621    -0.7438 H       
@<TRIPOS>BOND
   1    1    2 1
   2    1   17 am
   3    1   42 1
   4    2    3 ar
   5    2    7 ar
   6    3    4 ar
   7    3    8 1
   8    4    5 ar
   9    4   43 1
  10    5    6 ar
  11    5   44 1
  12    6    7 ar
  13    6   15 1
  14    7   45 1
  15    8    9 1
  16    8   10 1
  17    8   46 1
  18    9   13 1
  19    9   47 1
  20    9   48 1
  21   10   11 1
  22   10   49 1
  23   10   50 1
  24   11   12 1
  25   11   51 1
  26   11   52 1
  27   12   13 1
  28   12   14 1
  29   13   53 1
  30   13   54 1
  31   14   19 1
  32   14   55 1
  33   14   56 1
  34   15   16 2
  35   15   21 am
  36   17   18 2
  37   17   20 1
  38   19   36 ar
  39   19   40 ar
  40   20   22 1
  41   20   25 2
  42   21   26 1
  43   21   57 1
  44   22   23 1
  45   23   24 2
  46   23   31 1
  47   24   25 1
  48   24   58 1
  49   25   59 1
  50   26   27 1
  51   26   60 1
  52   26   61 1
  53   27   28 1
  54   27   62 1
  55   27   63 1
  56   28   29 1
  57   28   64 1
  58   28   65 1
  59   29   30 am
  60   29   32 1
  61   30   35 2
  62   30   34 1
  63   31   66 1
  64   31   67 1
  65   31   68 1
  66   32   33 1
  67   32   69 1
  68   32   70 1
  69   33   34 1
  70   33   71 1
  71   33   72 1
  72   34   73 1
  73   34   74 1
  74   36   37 ar
  75   36   75 1
  76   37   38 ar
  77   37   76 1
  78   38   39 ar
  79   38   77 1
  80   39   40 ar
  81   39   78 1
  82   40   41 1
  83   41   79 1
  84   41   80 1
  85   41   81 1

#	End of record

