#	Name: ASD01901094
#	Creating user name:	WinNT
#	Creation time:	15. 06. 2019 19:53

#	Modifying user name:	WinNT
#	Modification time:	15. 06. 2019 19:53

#	Program:	/corina/corina34_cracker 3.40 0067  02.08.2006

@<TRIPOS>MOLECULE
ASD01901094
  31   32    0    0    0
SMALL
NO_CHARGES


@<TRIPOS>ATOM
   1 C1            -0.0184     1.5028     0.0103 C.2     
   2 C2             0.0021    -0.0041     0.0020 C.3     
   3 O3            -1.3386    -0.4987     0.0122 O.3     
   4 C4            -1.4983    -1.8482     0.0064 C.ar    
   5 C5            -2.7720    -2.3962     0.0157 C.ar    
   6 C6            -2.9316    -3.7731     0.0098 C.ar    
   7 C7            -1.8169    -4.5998    -0.0052 C.ar    
   8 C8            -0.5489    -4.0514    -0.0144 C.ar    
   9 C9            -0.3871    -2.6789    -0.0144 C.ar    
  10 O10           -4.1787    -4.3131     0.0193 O.3     
  11 C11           -4.2681    -5.7393     0.0125 C.3     
  12 C12            2.4725     1.5850    -0.0130 C.ar    
  13 C13            1.2453     2.2555     0.0023 C.ar    
  14 C14            1.2403     3.6588     0.0094 C.ar    
  15 C15            2.4551     4.3180     0.0009 C.ar    
  16 C16            3.6277     3.5799    -0.0142 C.ar    
  17 N17            3.6028     2.2592    -0.0206 N.ar    
  18 Cl18           5.1552     4.4048    -0.0255 Cl      
  19 O19           -1.0766     2.0947     0.0185 O.2     
  20 H20            0.5123    -0.3556    -0.8948 H       
  21 H21            0.5293    -0.3651     0.8851 H       
  22 H22           -3.6382    -1.7513     0.0277 H       
  23 H23           -1.9408    -5.6726    -0.0094 H       
  24 H24            0.3174    -4.6963    -0.0261 H       
  25 H25            0.6051    -2.2525    -0.0264 H       
  26 H26           -5.3164    -6.0377     0.0213 H       
  27 H27           -3.7869    -6.1293    -0.8844 H       
  28 H28           -3.7692    -6.1388     0.8955 H       
  29 H29            2.4929     0.5052    -0.0142 H       
  30 H30            0.3113     4.2094     0.0209 H       
  31 H31            2.4900     5.3975     0.0056 H       
@<TRIPOS>BOND
   1    1    2 1
   2    1   13 1
   3    1   19 2
   4    2    3 1
   5    2   20 1
   6    2   21 1
   7    3    4 1
   8    4    5 ar
   9    4    9 ar
  10    5    6 ar
  11    5   22 1
  12    6    7 ar
  13    6   10 1
  14    7    8 ar
  15    7   23 1
  16    8    9 ar
  17    8   24 1
  18    9   25 1
  19   10   11 1
  20   11   26 1
  21   11   27 1
  22   11   28 1
  23   12   13 ar
  24   12   17 ar
  25   12   29 1
  26   13   14 ar
  27   14   15 ar
  28   14   30 1
  29   15   16 ar
  30   15   31 1
  31   16   17 ar
  32   16   18 1

#	End of record

