#	Name: ASD04910136
#	Creating user name:	WinNT
#	Creation time:	15. 06. 2019 20:55

#	Modifying user name:	WinNT
#	Modification time:	15. 06. 2019 20:55

#	Program:	/corina/corina34_cracker 3.40 0067  02.08.2006

@<TRIPOS>MOLECULE
ASD04910136
  32   32    0    0    0
SMALL
NO_CHARGES


@<TRIPOS>ATOM
   1 C1            -0.0174     1.4324    -0.4993 C.2     
   2 C2             0.0023    -0.0249    -0.2436 C.ar    
   3 C3             1.1674    -0.7584    -0.4764 C.ar    
   4 C4             1.1867    -2.1151    -0.2391 C.ar    
   5 C5             0.0391    -2.7577     0.2356 C.ar    
   6 C6            -1.1266    -2.0224     0.4688 C.ar    
   7 C7            -1.1422    -0.6644     0.2357 C.ar    
   8 O8             0.9795     1.9900    -0.9116 O.2     
   9 O9            -1.1426     2.1394    -0.2802 O.3     
  10 C10            2.4440    -2.9067    -0.4914 C.3     
  11 C11            0.0584    -4.2096     0.4895 C.2     
  12 O12            1.0962    -4.8284     0.3908 O.2     
  13 C13           -1.2118    -4.9247     0.8717 C.3     
  14 C14           -0.9178    -6.4121     1.0767 C.3     
  15 C15           -2.2075    -7.1381     1.4648 C.3     
  16 C16           -1.0892     3.5646    -0.5527 C.3     
  17 H17            2.0537    -0.2619    -0.8430 H       
  18 H18           -2.0135    -2.5178     0.8354 H       
  19 H19           -2.0414    -0.0953     0.4200 H       
  20 H20            2.9913    -3.0270     0.4435 H       
  21 H21            2.1823    -3.8876    -0.8880 H       
  22 H22            3.0677    -2.3779    -1.2121 H       
  23 H23           -1.6032    -4.5009     1.7966 H       
  24 H24           -1.9487    -4.8061     0.0774 H       
  25 H25           -0.5265    -6.8360     0.1519 H       
  26 H26           -0.1810    -6.5307     1.8711 H       
  27 H27           -2.5988    -6.7143     2.3896 H       
  28 H28           -2.9444    -7.0195     0.6704 H       
  29 H29           -1.9980    -8.1978     1.6109 H       
  30 H30           -0.3265     4.0261     0.0745 H       
  31 H31           -0.8424     3.7248    -1.6022 H       
  32 H32           -2.0587     4.0127    -0.3350 H       
@<TRIPOS>BOND
   1    1    2 1
   2    1    8 2
   3    1    9 1
   4    2    3 ar
   5    2    7 ar
   6    3    4 ar
   7    3   17 1
   8    4    5 ar
   9    4   10 1
  10    5    6 ar
  11    5   11 1
  12    6    7 ar
  13    6   18 1
  14    7   19 1
  15    9   16 1
  16   10   20 1
  17   10   21 1
  18   10   22 1
  19   11   12 2
  20   11   13 1
  21   13   14 1
  22   13   23 1
  23   13   24 1
  24   14   15 1
  25   14   25 1
  26   14   26 1
  27   15   27 1
  28   15   28 1
  29   15   29 1
  30   16   30 1
  31   16   31 1
  32   16   32 1

#	End of record

