#	Name: ASD01230182
#	Creating user name:	WinNT
#	Creation time:	15. 06. 2019 19:11

#	Modifying user name:	WinNT
#	Modification time:	15. 06. 2019 19:11

#	Program:	/corina/corina34_cracker 3.40 0067  02.08.2006

@<TRIPOS>MOLECULE
ASD01230182
  34   35    0    0    0
SMALL
NO_CHARGES


@<TRIPOS>ATOM
   1 C1            -0.0167     1.3798     0.0096 C.ar    
   2 C2             0.0021    -0.0041     0.0020 C.ar    
   3 C3             1.2212    -0.6625    -0.0131 C.ar    
   4 C4             2.3820     0.0970    -0.0201 C.ar    
   5 C5             2.2857     1.4750    -0.0118 C.ar    
   6 N6             1.1082     2.0694     0.0026 N.ar    
   7 C7            -1.2869    -0.7848     0.0106 C.3     
   8 O8            -0.9963    -2.1840     0.0002 O.3     
   9 C9            -2.0564    -3.0343     0.0062 C.ar    
  10 C10           -1.8472    -4.4057    -0.0033 C.ar    
  11 C11           -2.9264    -5.2680     0.0028 C.ar    
  12 C12           -4.2144    -4.7653     0.0182 C.ar    
  13 C13           -4.4256    -3.3989     0.0271 C.ar    
  14 C14           -3.3496    -2.5324     0.0274 C.ar    
  15 C15           -5.3899    -5.7082     0.0247 C.3     
  16 C16           -6.2266    -5.4714     1.2836 C.3     
  17 C17           -6.2513    -5.4580    -1.2148 C.3     
  18 Cl18          -1.5371     2.2175     0.0213 Cl      
  19 H19            1.2666    -1.7415    -0.0190 H       
  20 H20            3.3493    -0.3833    -0.0316 H       
  21 H21            3.1851     2.0728    -0.0172 H       
  22 H22           -1.8550    -0.5384     0.9076 H       
  23 H23           -1.8726    -0.5288    -0.8723 H       
  24 H24           -0.8414    -4.7989    -0.0157 H       
  25 H25           -2.7641    -6.3357    -0.0049 H       
  26 H26           -5.4326    -3.0086     0.0385 H       
  27 H27           -3.5150    -1.4652     0.0393 H       
  28 H28           -5.0304    -6.7371     0.0156 H       
  29 H29           -6.5862    -4.4424     1.2926 H       
  30 H30           -7.0769    -6.1534     1.2883 H       
  31 H31           -5.6130    -5.6496     2.1666 H       
  32 H32           -5.6552    -5.6267    -2.1116 H       
  33 H33           -7.1016    -6.1400    -1.2100 H       
  34 H34           -6.6108    -4.4290    -1.2057 H       
@<TRIPOS>BOND
   1    1    2 ar
   2    1    6 ar
   3    1   18 1
   4    2    3 ar
   5    2    7 1
   6    3    4 ar
   7    3   19 1
   8    4    5 ar
   9    4   20 1
  10    5    6 ar
  11    5   21 1
  12    7    8 1
  13    7   22 1
  14    7   23 1
  15    8    9 1
  16    9   10 ar
  17    9   14 ar
  18   10   11 ar
  19   10   24 1
  20   11   12 ar
  21   11   25 1
  22   12   13 ar
  23   12   15 1
  24   13   14 ar
  25   13   26 1
  26   14   27 1
  27   15   16 1
  28   15   17 1
  29   15   28 1
  30   16   29 1
  31   16   30 1
  32   16   31 1
  33   17   32 1
  34   17   33 1
  35   17   34 1

#	End of record

