#	Name: ASD04230175
#	Creating user name:	WinNT
#	Creation time:	15. 06. 2019 20:48

#	Modifying user name:	WinNT
#	Modification time:	15. 06. 2019 20:48

#	Program:	/corina/corina34_cracker 3.40 0067  02.08.2006

@<TRIPOS>MOLECULE
ASD04230175
  39   42    0    0    0
SMALL
NO_CHARGES


@<TRIPOS>ATOM
   1 C1             0.0767     1.3679     0.8452 C.2     
   2 C2             0.0735    -0.0862     0.6254 C.ar    
   3 C3            -1.1592    -0.7686     0.5513 C.ar    
   4 C4            -2.3841    -0.0753     0.6848 C.ar    
   5 C5            -2.3988     1.3253     0.8966 C.2     
   6 C6            -1.2107     2.0547     0.9854 C.2     
   7 C7             1.2661    -0.7950     0.4904 C.ar    
   8 C8             1.2452    -2.1630     0.2843 C.ar    
   9 C9             0.0502    -2.8496     0.2087 C.ar    
  10 C10           -1.1624    -2.1662     0.3399 C.ar    
  11 C11           -2.4424    -2.8672     0.2645 C.ar    
  12 C12           -3.6231    -2.1382     0.4024 C.ar    
  13 C13           -3.5959    -0.7808     0.6062 C.ar    
  14 O14            1.1255     1.9869     0.9144 O.2     
  15 S15           -2.4931    -4.6089     0.0025 S.3     
  16 C16           -4.2240    -4.8931     0.1690 C.ar    
  17 C17           -5.0399    -4.8942    -0.9559 C.ar    
  18 C18           -6.3958    -5.1174    -0.8243 C.ar    
  19 C19           -6.9442    -5.3402     0.4307 C.ar    
  20 C20           -6.1305    -5.3393     1.5546 C.ar    
  21 C21           -4.7735    -5.1220     1.4248 C.ar    
  22 C22           -1.2507     3.4699     1.2003 C.1     
  23 N23           -1.2823     4.5926     1.3708 N.1     
  24 C24           -3.6529     2.0041     1.0277 C.1     
  25 N25           -4.6477     2.5426     1.1317 N.1     
  26 O26           -8.2799    -5.5590     0.5593 O.3     
  27 C27           -8.7767    -5.7812     1.8806 C.3     
  28 H28            2.2105    -0.2741     0.5465 H       
  29 H29            2.1762    -2.7006     0.1810 H       
  30 H30            0.0520    -3.9175     0.0474 H       
  31 H31           -4.5731    -2.6490     0.3475 H       
  32 H32           -4.5271    -0.2437     0.7097 H       
  33 H33           -4.6134    -4.7201    -1.9327 H       
  34 H34           -7.0301    -5.1183    -1.6984 H       
  35 H35           -6.5584    -5.5128     2.5310 H       
  36 H36           -4.1403    -5.1217     2.2997 H       
  37 H37           -9.8541    -5.9420     1.8414 H       
  38 H38           -8.2935    -6.6601     2.3074 H       
  39 H39           -8.5615    -4.9111     2.5008 H       
@<TRIPOS>BOND
   1    1    2 1
   2    1   14 2
   3    1    6 1
   4    2    3 ar
   5    2    7 ar
   6    3    4 ar
   7    3   10 ar
   8    4    5 1
   9    4   13 ar
  10    5    6 2
  11    5   24 1
  12    6   22 1
  13    7    8 ar
  14    7   28 1
  15    8    9 ar
  16    8   29 1
  17    9   10 ar
  18    9   30 1
  19   10   11 ar
  20   11   12 ar
  21   11   15 1
  22   12   13 ar
  23   12   31 1
  24   13   32 1
  25   15   16 1
  26   16   17 ar
  27   16   21 ar
  28   17   18 ar
  29   17   33 1
  30   18   19 ar
  31   18   34 1
  32   19   20 ar
  33   19   26 1
  34   20   21 ar
  35   20   35 1
  36   21   36 1
  37   22   23 3
  38   24   25 3
  39   26   27 1
  40   27   37 1
  41   27   38 1
  42   27   39 1

#	End of record

