#	Name: ASD01840357
#	Creating user name:	WinNT
#	Creation time:	15. 06. 2019 19:37

#	Modifying user name:	WinNT
#	Modification time:	15. 06. 2019 19:37

#	Program:	/corina/corina34_cracker 3.40 0067  02.08.2006

@<TRIPOS>MOLECULE
ASD01840357
  47   50    0    0    0
SMALL
NO_CHARGES


@<TRIPOS>ATOM
   1 C1             0.6058     1.7886    -0.8833 C.ar    
   2 C2             0.8218     0.5599    -1.4675 C.ar    
   3 N3             2.0004    -0.0294    -1.3615 N.ar    
   4 N4             2.9807     0.4961    -0.7266 N.ar    
   5 C5             1.6751     2.3861    -0.1779 C.ar    
   6 C6             1.7403     3.6524     0.5280 C.2     
   7 C7             2.8859     1.6827    -0.1222 C.ar    
   8 S8             4.0727     2.5988     0.7958 S.3     
   9 C9             2.9448     3.9061     1.0972 C.2     
  10 C10           -0.7291     2.4783    -0.9983 C.3     
  11 C11           -0.2894    -0.1150    -2.2297 C.3     
  12 N12            0.6652     4.5267     0.6127 N.pl3   
  13 C13            3.2613     5.1123     1.8606 C.2     
  14 O14            2.4141     5.9721     2.0194 O.2     
  15 N15            4.4911     5.2724     2.3884 N.am    
  16 C16            5.1748     6.3003     3.1876 C.3     
  17 C17            6.4972     5.8216     2.5727 C.3     
  18 C18            5.7377     4.4930     2.4242 C.3     
  19 N19            6.8384     6.4686     1.3034 N.am    
  20 C20            8.1257     6.5477     0.9120 C.2     
  21 O21            8.4394     7.1425    -0.2549 O.3     
  22 O22            9.0033     6.0824     1.6119 O.2     
  23 C23            9.7610     7.2826    -0.5405 C.ar    
  24 C24           10.4919     6.1959    -0.9981 C.ar    
  25 C25           11.8349     6.3408    -1.2876 C.ar    
  26 C26           12.4507     7.5674    -1.1212 C.ar    
  27 C27           11.7244     8.6520    -0.6653 C.ar    
  28 C28           10.3798     8.5138    -0.3803 C.ar    
  29 H29           -1.3372     2.2406    -0.1255 H       
  30 H30           -0.5776     3.5563    -1.0530 H       
  31 H31           -1.2381     2.1367    -1.8996 H       
  32 H32           -0.2477     0.1869    -3.2762 H       
  33 H33           -0.1739    -1.1966    -2.1587 H       
  34 H34           -1.2502     0.1765    -1.8055 H       
  35 H35           -0.2371     4.2014     0.4680 H       
  36 H36            0.8163     5.4630     0.8164 H       
  37 H37            4.9081     7.3186     2.9048 H       
  38 H38            5.1089     6.1297     4.2622 H       
  39 H39            7.3297     5.7856     3.2754 H       
  40 H40            5.8202     3.8460     3.2976 H       
  41 H41            5.9506     3.9715     1.4910 H       
  42 H42            6.1379     6.8401     0.7446 H       
  43 H43           10.0115     5.2373    -1.1275 H       
  44 H44           12.4043     5.4950    -1.6438 H       
  45 H45           13.5009     7.6785    -1.3474 H       
  46 H46           12.2078     9.6091    -0.5358 H       
  47 H47            9.8118     9.3623    -0.0284 H       
@<TRIPOS>BOND
   1    1    2 ar
   2    1    5 ar
   3    1   10 1
   4    2   11 1
   5    2    3 ar
   6    3    4 ar
   7    4    7 ar
   8    5    7 ar
   9    5    6 1
  10    6    9 2
  11    6   12 1
  12    7    8 1
  13    8    9 1
  14    9   13 1
  15   10   29 1
  16   10   30 1
  17   10   31 1
  18   11   32 1
  19   11   33 1
  20   11   34 1
  21   12   35 1
  22   12   36 1
  23   13   14 2
  24   13   15 am
  25   15   16 1
  26   15   18 1
  27   16   17 1
  28   16   37 1
  29   16   38 1
  30   17   19 1
  31   17   18 1
  32   17   39 1
  33   18   40 1
  34   18   41 1
  35   19   20 am
  36   19   42 1
  37   20   21 1
  38   20   22 2
  39   21   23 1
  40   23   24 ar
  41   23   28 ar
  42   24   25 ar
  43   24   43 1
  44   25   26 ar
  45   25   44 1
  46   26   27 ar
  47   26   45 1
  48   27   28 ar
  49   27   46 1
  50   28   47 1

#	End of record

