#	Name: ASD01811842
#	Creating user name:	WinNT
#	Creation time:	15. 06. 2019 19:27

#	Modifying user name:	WinNT
#	Modification time:	15. 06. 2019 19:27

#	Program:	/corina/corina34_cracker 3.40 0067  02.08.2006

@<TRIPOS>MOLECULE
ASD01811842
  60   64    0    0    0
SMALL
NO_CHARGES


@<TRIPOS>ATOM
   1 C1             0.3713     2.1430     0.1790 C.3     
   2 C2             0.2378     0.6642    -0.0710 C.2     
   3 C3             0.8865    -0.1981     0.7075 C.2     
   4 C4             1.7492     0.3458     1.7779 C.ar    
   5 C5             2.1233     1.6906     1.7178 C.ar    
   6 N6             1.7180     2.4768     0.6449 N.3     
   7 C7             1.8236     3.9056     0.9697 C.3     
   8 C8             2.1819    -0.4684     2.8296 C.ar    
   9 C9             2.9658     0.0432     3.8234 C.ar    
  10 C10            3.3378     1.3886     3.7968 C.ar    
  11 C11            2.9137     2.2269     2.7418 C.ar    
  12 C12            4.1742     1.9800     4.8513 C.2     
  13 N13            4.4787     3.2939     4.7431 N.am    
  14 C14            4.0208     4.0269     3.6934 C.2     
  15 N15            3.2833     3.5318     2.7466 N.2     
  16 O16            4.5773     1.3129     5.7865 O.2     
  17 C17            5.3091     3.9329     5.7670 C.3     
  18 C18            4.5259     5.0735     6.4201 C.3     
  19 C19            5.3932     5.7409     7.4893 C.3     
  20 C20            6.6620     6.2990     6.8416 C.3     
  21 C21            7.4452     5.1584     6.1885 C.3     
  22 C22            6.5780     4.4910     5.1193 C.3     
  23 O23            3.3408     4.5523     7.0250 O.3     
  24 C24            1.7796    -1.9202     2.8663 C.3     
  25 C25            0.4403    -2.0534     3.5442 C.ar    
  26 C26           -0.7243    -2.1091     2.7914 C.ar    
  27 C27           -1.9334    -2.2321     3.4540 C.ar    
  28 C28           -1.9403    -2.2952     4.8413 C.ar    
  29 N29           -0.8088    -2.2389     5.5242 N.ar    
  30 C30            0.3591    -2.1271     4.9207 C.ar    
  31 O31           -3.1189    -2.4154     5.5026 O.3     
  32 C32           -3.0593    -2.4751     6.9291 C.3     
  33 H33            0.1687     2.6821    -0.7464 H       
  34 H34           -0.3540     2.4452     0.9344 H       
  35 H35           -0.3823     0.3048    -0.8788 H       
  36 H36            0.7856    -1.2635     0.5619 H       
  37 H37            2.8742     4.1942     1.0019 H       
  38 H38            1.3093     4.4905     0.2072 H       
  39 H39            1.3657     4.0921     1.9411 H       
  40 H40            3.2980    -0.5929     4.6305 H       
  41 H41            4.2834     5.0734     3.6450 H       
  42 H42            5.5810     3.1983     6.5249 H       
  43 H43            4.2540     5.8082     5.6622 H       
  44 H44            4.8352     6.5535     7.9546 H       
  45 H45            5.6651     5.0062     8.2473 H       
  46 H46            6.3901     7.0336     6.0837 H       
  47 H47            7.2799     6.7744     7.6034 H       
  48 H48            8.3492     5.5559     5.7271 H       
  49 H49            7.7171     4.4237     6.9464 H       
  50 H50            7.1359     3.6784     4.6540 H       
  51 H51            6.3061     5.2257     4.3613 H       
  52 H52            2.7940     5.2213     7.4593 H       
  53 H53            1.7115    -2.3042     1.8485 H       
  54 H54            2.5256    -2.4900     3.4204 H       
  55 H55           -0.6881    -2.0574     1.7132 H       
  56 H56           -2.8591    -2.2780     2.8995 H       
  57 H57            1.2624    -2.0840     5.5112 H       
  58 H58           -4.0679    -2.5706     7.3312 H       
  59 H59           -2.4643    -3.3367     7.2321 H       
  60 H60           -2.6002    -1.5637     7.3120 H       
@<TRIPOS>BOND
   1    1    2 1
   2    1    6 1
   3    1   33 1
   4    1   34 1
   5    2    3 2
   6    2   35 1
   7    3    4 1
   8    3   36 1
   9    4    5 ar
  10    4    8 ar
  11    5    6 1
  12    5   11 ar
  13    6    7 1
  14    7   37 1
  15    7   38 1
  16    7   39 1
  17    8    9 ar
  18    8   24 1
  19    9   10 ar
  20    9   40 1
  21   10   11 ar
  22   10   12 1
  23   11   15 1
  24   12   13 am
  25   12   16 2
  26   13   14 1
  27   13   17 1
  28   14   15 2
  29   14   41 1
  30   17   18 1
  31   17   22 1
  32   17   42 1
  33   18   19 1
  34   18   23 1
  35   18   43 1
  36   19   20 1
  37   19   44 1
  38   19   45 1
  39   20   21 1
  40   20   46 1
  41   20   47 1
  42   21   22 1
  43   21   48 1
  44   21   49 1
  45   22   50 1
  46   22   51 1
  47   23   52 1
  48   24   25 1
  49   24   53 1
  50   24   54 1
  51   25   26 ar
  52   25   30 ar
  53   26   27 ar
  54   26   55 1
  55   27   28 ar
  56   27   56 1
  57   28   29 ar
  58   28   31 1
  59   29   30 ar
  60   30   57 1
  61   31   32 1
  62   32   58 1
  63   32   59 1
  64   32   60 1

#	End of record

