#	Name: ASD01882910
#	Creating user name:	WinNT
#	Creation time:	15. 06. 2019 19:45

#	Modifying user name:	WinNT
#	Modification time:	15. 06. 2019 19:45

#	Program:	/corina/corina34_cracker 3.40 0067  02.08.2006

@<TRIPOS>MOLECULE
ASD01882910
  38   37    0    0    0
SMALL
NO_CHARGES


@<TRIPOS>ATOM
   1 C1            -0.0173     1.4278     0.0099 C.2     
   2 C2             0.0021    -0.0041     0.0020 C.1     
   3 C3             0.0180    -1.1779    -0.0044 C.1     
   4 C4             0.0380    -2.6498    -0.0125 C.3     
   5 C5            -1.3974    -3.1794    -0.0017 C.3     
   6 O6             1.0268     2.0497     0.0033 O.2     
   7 O7            -1.1938     2.0858     0.0190 O.3     
   8 O8            -1.3780    -4.6082    -0.0095 O.3     
   9 Si9           -2.8588    -5.2918     0.0009 Si      
  10 C10           -3.8052    -4.7466    -1.5083 C.3     
  11 C11           -2.6866    -7.1468    -0.0107 C.3     
  12 C12           -3.7762    -4.7629     1.5338 C.3     
  13 C13            0.7541    -3.1432    -1.2713 C.3     
  14 C14            0.7780    -3.1566     1.2270 C.3     
  15 C15           -1.1375     3.5367     0.0267 C.3     
  16 C16           -2.5591     4.1022     0.0365 C.3     
  17 H17           -1.9076    -2.8278     0.8951 H       
  18 H18           -1.9246    -2.8183    -0.8847 H       
  19 H19           -3.2685    -5.0560    -2.4051 H       
  20 H20           -4.7948    -5.2034    -1.5013 H       
  21 H21           -3.9060    -3.6613    -1.5015 H       
  22 H22           -2.1329    -7.4658     0.8724 H       
  23 H23           -3.6762    -7.6036    -0.0037 H       
  24 H24           -2.1499    -7.4562    -0.9075 H       
  25 H25           -3.8770    -3.6776     1.5406 H       
  26 H26           -4.7658    -5.2198     1.5408 H       
  27 H27           -3.2225    -5.0819     2.4168 H       
  28 H28            1.7767    -2.7659    -1.2791 H       
  29 H29            0.7689    -4.2331    -1.2773 H       
  30 H30            0.2269    -2.7821    -2.1544 H       
  31 H31            0.2678    -2.8051     2.1238 H       
  32 H32            0.7927    -4.2465     1.2210 H       
  33 H33            1.8005    -2.7793     1.2193 H       
  34 H34           -0.6057     3.8750     0.9160 H       
  35 H35           -0.6141     3.8847    -0.8639 H       
  36 H36           -3.0908     3.7639    -0.8528 H       
  37 H37           -3.0824     3.7543     0.9271 H       
  38 H38           -2.5168     5.1914     0.0422 H       
@<TRIPOS>BOND
   1    1    2 1
   2    1    6 2
   3    1    7 1
   4    2    3 3
   5    3    4 1
   6    4    5 1
   7    4   13 1
   8    4   14 1
   9    5    8 1
  10    5   17 1
  11    5   18 1
  12    7   15 1
  13    8    9 1
  14    9   10 1
  15    9   11 1
  16    9   12 1
  17   10   19 1
  18   10   20 1
  19   10   21 1
  20   11   22 1
  21   11   23 1
  22   11   24 1
  23   12   25 1
  24   12   26 1
  25   12   27 1
  26   13   28 1
  27   13   29 1
  28   13   30 1
  29   14   31 1
  30   14   32 1
  31   14   33 1
  32   15   16 1
  33   15   34 1
  34   15   35 1
  35   16   36 1
  36   16   37 1
  37   16   38 1

#	End of record

