#	Name: ASD03200023
#	Creating user name:	WinNT
#	Creation time:	15. 06. 2019 20:34

#	Modifying user name:	WinNT
#	Modification time:	15. 06. 2019 20:34

#	Program:	/corina/corina34_cracker 3.40 0067  02.08.2006

@<TRIPOS>MOLECULE
ASD03200023
  54   57    0    0    0
SMALL
NO_CHARGES


@<TRIPOS>ATOM
   1 C1             0.6768    -2.4596    -0.0332 C.3     
   2 N2             0.1945    -1.1331     0.3719 N.3     
   3 C3             0.6893    -0.7731     1.7068 C.3     
   4 C4             2.2183    -0.7110     1.6860 C.3     
   5 C5             2.7739    -2.0745     1.2658 C.3     
   6 C6             2.2054    -2.4478    -0.1060 C.3     
   7 C7            -1.1972    -1.0705     0.3213 C.ar    
   8 C8            -1.9487    -0.9184     1.4839 C.ar    
   9 C9            -3.3247    -0.8608     1.3922 C.ar    
  10 N10           -3.9316    -0.9476     0.2237 N.ar    
  11 C11           -3.2600    -1.0923    -0.9033 C.ar    
  12 C12           -1.8764    -1.1532    -0.9001 C.ar    
  13 N13           -1.1679    -1.3070    -2.0994 N.am    
  14 C14           -1.6920    -2.0388    -3.1026 C.2     
  15 C15           -1.0124    -2.0971    -4.3994 C.2     
  16 O16           -2.7300    -2.6515    -2.9313 O.2     
  17 C17           -1.5475    -2.7409    -5.4937 C.2     
  18 S18           -0.4161    -2.5695    -6.8334 S.3     
  19 C19            0.6755    -1.6483    -5.8052 C.2     
  20 N20            0.1720    -1.5268    -4.6196 N.2     
  21 C21            1.9757    -1.0904    -6.2350 C.ar    
  22 N22            2.7137    -0.3715     3.0266 N.3     
  23 N23           -2.7573    -3.4042    -5.5334 N.pl3   
  24 C24            2.8096    -0.4640    -5.3065 C.ar    
  25 C25            4.0243     0.0576    -5.7063 C.ar    
  26 C26            4.4225    -0.0361    -7.0248 C.ar    
  27 C27            3.5979    -0.6601    -7.9639 C.ar    
  28 C28            2.3740    -1.1935    -7.5662 C.ar    
  29 C29            4.0259    -0.7595    -9.3758 C.2     
  30 O30            3.3074    -1.3028   -10.1918 O.2     
  31 N31            5.2128    -0.2478    -9.7578 N.am    
  32 H32            0.3537    -3.2020     0.6965 H       
  33 H33            0.2685    -2.7111    -1.0121 H       
  34 H34            0.2901     0.2003     1.9918 H       
  35 H35            0.3661    -1.5234     2.4285 H       
  36 H36            2.5419     0.0488     0.9746 H       
  37 H37            3.8612    -2.0225     1.2076 H       
  38 H38            2.4830    -2.8277     1.9979 H       
  39 H39            2.5637    -3.4368    -0.3916 H       
  40 H40            2.5288    -1.7153    -0.8456 H       
  41 H41           -1.4612    -0.8468     2.4450 H       
  42 H42           -3.9133    -0.7432     2.2900 H       
  43 H43           -3.7953    -1.1595    -1.8389 H       
  44 H44           -0.3004    -0.8868    -2.2076 H       
  45 H45            3.7215    -0.3244     3.0385 H       
  46 H46            2.3075     0.4921     3.3542 H       
  47 H47           -3.3141    -3.4453    -4.7401 H       
  48 H48           -3.0507    -3.8291    -6.3544 H       
  49 H49            2.5039    -0.3871    -4.2735 H       
  50 H50            4.6653     0.5414    -4.9842 H       
  51 H51            5.3734     0.3743    -7.3309 H       
  52 H52            1.7327    -1.6770    -8.2883 H       
  53 H53            5.7862     0.1858    -9.1065 H       
  54 H54            5.4936    -0.3130   -10.6839 H       
@<TRIPOS>BOND
   1    1    2 1
   2    1    6 1
   3    1   32 1
   4    1   33 1
   5    2    3 1
   6    2    7 1
   7    3    4 1
   8    3   34 1
   9    3   35 1
  10    4    5 1
  11    4   22 1
  12    4   36 1
  13    5    6 1
  14    5   37 1
  15    5   38 1
  16    6   39 1
  17    6   40 1
  18    7    8 ar
  19    7   12 ar
  20    8    9 ar
  21    8   41 1
  22    9   10 ar
  23    9   42 1
  24   10   11 ar
  25   11   12 ar
  26   11   43 1
  27   12   13 1
  28   13   14 am
  29   13   44 1
  30   14   15 1
  31   14   16 2
  32   15   17 2
  33   15   20 1
  34   17   18 1
  35   17   23 1
  36   18   19 1
  37   19   20 2
  38   19   21 1
  39   21   24 ar
  40   21   28 ar
  41   22   45 1
  42   22   46 1
  43   23   47 1
  44   23   48 1
  45   24   25 ar
  46   24   49 1
  47   25   26 ar
  48   25   50 1
  49   26   27 ar
  50   26   51 1
  51   27   28 ar
  52   27   29 1
  53   28   52 1
  54   29   30 2
  55   29   31 am
  56   31   53 1
  57   31   54 1

#	End of record

