#	Name: ASD01411038
#	Creating user name:	WinNT
#	Creation time:	15. 06. 2019 19:19

#	Modifying user name:	WinNT
#	Modification time:	15. 06. 2019 19:19

#	Program:	/corina/corina34_cracker 3.40 0067  02.08.2006

@<TRIPOS>MOLECULE
ASD01411038
  42   44    0    0    0
SMALL
NO_CHARGES


@<TRIPOS>ATOM
   1 C1            -0.2188     0.8700    -0.3213 C.2     
   2 S2            -0.4350    -0.8873    -0.3974 S.3     
   3 C3            -2.1890    -0.8257    -0.1332 C.2     
   4 C4            -2.4798     0.6072    -0.0018 C.2     
   5 N5            -1.4272     1.4015    -0.1041 N.am    
   6 O6            -3.6039     1.0319     0.1912 O.2     
   7 S7             1.2558     1.7239    -0.4867 S.2     
   8 C8            -3.0619    -1.8655    -0.0681 C.2     
   9 C9            -2.5628    -3.2428    -0.0820 C.ar    
  10 C10           -1.5849     2.8536     0.0094 C.3     
  11 C11           -1.3354    -3.5609     0.4946 C.ar    
  12 C12           -0.8668    -4.8664     0.4790 C.ar    
  13 C13           -1.5763    -5.8783    -0.0928 C.ar    
  14 C14           -2.8228    -5.6316    -0.6934 C.ar    
  15 C15           -3.3460    -4.3159    -0.6967 C.ar    
  16 C16           -3.5657    -6.6668    -1.2866 C.ar    
  17 C17           -4.7699    -6.3889    -1.8585 C.ar    
  18 C18           -5.2782    -5.0924    -1.8656 C.ar    
  19 C19           -4.5864    -4.0659    -1.2931 C.ar    
  20 C20           -3.0423     3.1842     0.3375 C.3     
  21 C21           -3.3748     2.6824     1.7442 C.3     
  22 C22           -3.2483     4.6989     0.2744 C.3     
  23 C23           -0.6927     3.3715     1.1079 C.2     
  24 O24            0.0035     2.6063     1.7320 O.2     
  25 O25           -0.6714     4.6830     1.3929 O.3     
  26 H26           -4.1234    -1.6764    -0.0060 H       
  27 H27           -1.3094     3.3238    -0.9346 H       
  28 H28           -0.7437    -2.7848     0.9571 H       
  29 H29            0.0882    -5.0864     0.9330 H       
  30 H30           -1.1766    -6.8816    -0.0849 H       
  31 H31           -3.1836    -7.6769    -1.2891 H       
  32 H32           -5.3391    -7.1859    -2.3138 H       
  33 H33           -6.2356    -4.8981    -2.3260 H       
  34 H34           -4.9913    -3.0648    -1.3052 H       
  35 H35           -3.6969     2.6980    -0.3858 H       
  36 H36           -2.9787     1.6753     1.8737 H       
  37 H37           -2.9261     3.3471     2.4825 H       
  38 H38           -4.4564     2.6676     1.8784 H       
  39 H39           -3.0115     5.0564    -0.7277 H       
  40 H40           -4.2866     4.9344     0.5082 H       
  41 H41           -2.5937     5.1851     0.9977 H       
  42 H42           -0.0833     4.9679     2.1057 H       
@<TRIPOS>BOND
   1    1    2 1
   2    1    7 2
   3    1    5 am
   4    2    3 1
   5    3    4 1
   6    3    8 2
   7    4    5 am
   8    4    6 2
   9    5   10 1
  10    8    9 1
  11    8   26 1
  12    9   11 ar
  13    9   15 ar
  14   10   20 1
  15   10   23 1
  16   10   27 1
  17   11   12 ar
  18   11   28 1
  19   12   13 ar
  20   12   29 1
  21   13   14 ar
  22   13   30 1
  23   14   15 ar
  24   14   16 ar
  25   15   19 ar
  26   16   17 ar
  27   16   31 1
  28   17   18 ar
  29   17   32 1
  30   18   19 ar
  31   18   33 1
  32   19   34 1
  33   20   21 1
  34   20   22 1
  35   20   35 1
  36   21   36 1
  37   21   37 1
  38   21   38 1
  39   22   39 1
  40   22   40 1
  41   22   41 1
  42   23   24 2
  43   23   25 1
  44   25   42 1

#	End of record

