#	Name: ASD05940086
#	Creating user name:	WinNT
#	Creation time:	15. 06. 2019 21:04

#	Modifying user name:	WinNT
#	Modification time:	15. 06. 2019 21:04

#	Program:	/corina/corina34_cracker 3.40 0067  02.08.2006

@<TRIPOS>MOLECULE
ASD05940086
  67   71    0    0    0
SMALL
NO_CHARGES


@<TRIPOS>ATOM
   1 N1             0.7239     1.9065     0.2055 N.ar    
   2 C2             0.4872     0.6086     0.1158 C.ar    
   3 N3             1.4662    -0.2813     0.0714 N.ar    
   4 C4             2.7365     0.1076     0.1162 C.ar    
   5 C5             3.0288     1.4681     0.2003 C.ar    
   6 C6             1.9707     2.3741     0.2497 C.ar    
   7 N7             2.2115     3.7382     0.3428 N.pl3   
   8 O8            -0.7963     0.1765     0.0684 O.3     
   9 C9            -1.8188     1.1734     0.1198 C.3     
  10 C10           -3.1912     0.5002     0.0551 C.3     
  11 N11            3.7663    -0.8223     0.0958 N.3     
  12 C12            4.4487    -0.8246    -1.2064 C.3     
  13 C13            4.7276     0.5561    -1.8053 C.3     
  14 C14            5.2258     1.4774    -0.7178 C.2     
  15 N15            4.3580     1.9148     0.2205 N.am    
  16 O16            6.3892     1.8198    -0.6868 O.2     
  17 C17            3.2711    -2.1636     0.4330 C.3     
  18 C18            2.7982    -2.1795     1.8638 C.ar    
  19 C19            1.4561    -2.0143     2.1499 C.ar    
  20 C20            1.0222    -2.0288     3.4625 C.ar    
  21 C21            1.9305    -2.2089     4.4887 C.ar    
  22 C22            3.2729    -2.3751     4.2024 C.ar    
  23 C23            3.7060    -2.3649     2.8899 C.ar    
  24 C24            4.2632    -2.5711     5.3213 C.3     
  25 C25           -4.2860     1.5676     0.1100 C.3     
  26 C26           -5.6584     0.8943     0.0453 C.3     
  27 N27            4.3993    -4.0052     5.6092 N.3     
  28 C28            5.5260    -4.2553     6.5267 C.3     
  29 C29            4.9604    -5.0038     7.7520 C.3     
  30 C30            3.6545    -5.6362     7.2029 C.3     
  31 C31            3.1654    -4.5420     6.2216 C.3     
  32 C32            5.4800    -1.9257    -1.4602 C.3     
  33 C33            4.1265    -1.9647    -2.1730 C.3     
  34 H34            3.1229     4.0688     0.3741 H       
  35 H35            1.4684     4.3607     0.3766 H       
  36 H36           -1.7329     1.7344     1.0503 H       
  37 H37           -1.7070     1.8524    -0.7255 H       
  38 H38           -3.2772    -0.0609    -0.8755 H       
  39 H39           -3.3030    -0.1789     0.9004 H       
  40 H40            5.4853     0.4690    -2.5841 H       
  41 H41            3.8098     0.9600    -2.2326 H       
  42 H42            4.6529     2.5354     0.9051 H       
  43 H43            2.4424    -2.4214    -0.2264 H       
  44 H44            4.0745    -2.8896     0.3078 H       
  45 H45            0.7464    -1.8735     1.3481 H       
  46 H46           -0.0264    -1.8990     3.6861 H       
  47 H47            1.5917    -2.2196     5.5141 H       
  48 H48            4.7546    -2.4948     2.6663 H       
  49 H49            5.2310    -2.1666     5.0248 H       
  50 H50            3.9108    -2.0532     6.2133 H       
  51 H51           -4.2001     2.1286     1.0406 H       
  52 H52           -4.1742     2.2466    -0.7353 H       
  53 H53           -5.7702     0.2153     0.8906 H       
  54 H54           -6.4384     1.6547     0.0845 H       
  55 H55           -5.7444     0.3333    -0.8852 H       
  56 H56            6.2781    -4.8696     6.0316 H       
  57 H57            5.9656    -3.3086     6.8409 H       
  58 H58            5.6529    -5.7770     8.0847 H       
  59 H59            4.7408    -4.3075     8.5613 H       
  60 H60            3.8630    -6.5677     6.6766 H       
  61 H61            2.9312    -5.7950     8.0028 H       
  62 H62            2.6371    -3.7564     6.7619 H       
  63 H63            2.5211    -4.9776     5.4579 H       
  64 H64            6.3554    -1.6677    -2.0561 H       
  65 H65            5.6502    -2.6494    -0.6632 H       
  66 H66            3.4064    -2.7143    -1.8450 H       
  67 H67            4.1117    -1.7326    -3.2379 H       
@<TRIPOS>BOND
   1    1    2 ar
   2    1    6 ar
   3    2    3 ar
   4    2    8 1
   5    3    4 ar
   6    4    5 ar
   7    4   11 1
   8    5    6 ar
   9    5   15 1
  10    6    7 1
  11    7   34 1
  12    7   35 1
  13    8    9 1
  14    9   10 1
  15    9   36 1
  16    9   37 1
  17   10   25 1
  18   10   38 1
  19   10   39 1
  20   11   12 1
  21   11   17 1
  22   12   13 1
  23   12   32 1
  24   12   33 1
  25   13   14 1
  26   13   40 1
  27   13   41 1
  28   14   15 am
  29   14   16 2
  30   15   42 1
  31   17   18 1
  32   17   43 1
  33   17   44 1
  34   18   19 ar
  35   18   23 ar
  36   19   20 ar
  37   19   45 1
  38   20   21 ar
  39   20   46 1
  40   21   22 ar
  41   21   47 1
  42   22   23 ar
  43   22   24 1
  44   23   48 1
  45   24   27 1
  46   24   49 1
  47   24   50 1
  48   25   26 1
  49   25   51 1
  50   25   52 1
  51   26   53 1
  52   26   54 1
  53   26   55 1
  54   27   28 1
  55   27   31 1
  56   28   29 1
  57   28   56 1
  58   28   57 1
  59   29   30 1
  60   29   58 1
  61   29   59 1
  62   30   31 1
  63   30   60 1
  64   30   61 1
  65   31   62 1
  66   31   63 1
  67   32   33 1
  68   32   64 1
  69   32   65 1
  70   33   66 1
  71   33   67 1

#	End of record

