#	Name: ASD06232004
#	Creating user name:	WinNT
#	Creation time:	15. 06. 2019 21:05

#	Modifying user name:	WinNT
#	Modification time:	15. 06. 2019 21:05

#	Program:	/corina/corina34_cracker 3.40 0067  02.08.2006

@<TRIPOS>MOLECULE
ASD06232004
  93   97    0    0    0
SMALL
NO_CHARGES


@<TRIPOS>ATOM
   1 C1            -0.1488     2.4370     1.0702 C.3     
   2 C2            -0.4976     1.1468     0.3409 C.3     
   3 C3             0.0453    -0.0995     1.0137 C.3     
   4 C4             1.4771    -0.0040     1.5200 C.3     
   5 C5             1.7313     1.3052     2.2551 C.3     
   6 C6             1.3421     2.5028     1.4019 C.3     
   7 C7             2.5106    -0.4154     0.5009 C.3     
   8 C8             3.9409    -0.2643     1.0444 C.3     
   9 C9             4.1269     1.1692     1.5360 C.3     
  10 C10            3.1890     1.3957     2.7216 C.3     
  11 C11            5.5406     1.5143     1.8729 C.3     
  12 C12            5.7790     1.7354     3.3822 C.3     
  13 C13            4.9220     2.8741     3.8728 C.3     
  14 C14            3.4685     2.7237     3.4050 C.3     
  15 C15            6.6587     0.5172     1.5390 C.3     
  16 C16            7.8789     1.1983     2.2305 C.3     
  17 C17            7.2963     2.0321     3.3980 C.3     
  18 H18            1.5397    -0.7923     2.3279 H       
  19 C19            0.8573     1.2992     3.5306 C.3     
  20 C20            5.5799     0.4755     4.2203 C.3     
  21 C21            7.8919     1.5779     4.7293 C.3     
  22 O22            4.8512    -0.5406    -0.0233 O.3     
  23 O23           -0.1680     1.2273    -1.0389 O.3     
  24 C24            7.2742     2.3914     5.8684 C.3     
  25 C25            9.4064     1.7945     4.7109 C.3     
  26 C26           10.0186     1.2259     5.9926 C.3     
  27 N27           11.4687     1.4334     5.9749 N.am    
  28 C28           12.2226     1.0103     7.0089 C.2     
  29 O29           13.5553     1.2009     6.9926 O.3     
  30 O30           11.6995     0.4567     7.9557 O.2     
  31 C31           14.3041     0.7195     8.1397 C.3     
  32 C32           15.7683     1.0188     7.9454 C.2     
  33 C33           16.4791     1.5261     8.9428 C.2     
  34 C34           17.9152     1.8196     8.7522 C.ar    
  35 C35           18.6663     2.3536     9.8000 C.ar    
  36 C36           20.0063     2.6254     9.6156 C.ar    
  37 C37           20.6055     2.3700     8.3950 C.ar    
  38 C38           19.8663     1.8411     7.3521 C.ar    
  39 C39           18.5269     1.5586     7.5256 C.ar    
  40 C40            2.4093     0.2951    -0.8397 C.3     
  41 C41            3.3833    -0.3448    -1.8310 C.3     
  42 H42           -0.3887     3.2853     0.4097 H       
  43 H43           -0.7550     2.5452     1.9652 H       
  44 H44           -1.6124     1.0630     0.3798 H       
  45 H45           -0.6138    -0.3714     1.8518 H       
  46 H46           -0.0163    -0.9398     0.3016 H       
  47 H47            1.9257     2.5406     0.4875 H       
  48 H48            1.5276     3.4254     1.9660 H       
  49 H49            2.3714    -1.5005     0.3022 H       
  50 H50            4.0979    -0.9649     1.8588 H       
  51 H51            3.8055     1.8517     0.7266 H       
  52 H52            3.3015     0.5809     3.4426 H       
  53 H53            5.7915     2.4656     1.3475 H       
  54 H54            4.9487     2.9051     4.9711 H       
  55 H55            5.3288     3.8260     3.5062 H       
  56 H56            3.2425     3.5406     2.7040 H       
  57 H57            2.8105     2.8489     4.2728 H       
  58 H58            6.4738    -0.4681     1.9408 H       
  59 H59            6.8282     0.4783     0.4605 H       
  60 H60            8.5593     0.4393     2.6108 H       
  61 H61            8.3881     1.8482     1.5212 H       
  62 H62            7.4613     3.0921     3.2371 H       
  63 H63            1.1340     0.4509     4.1567 H       
  64 H64            1.0148     2.2254     4.0833 H       
  65 H65           -0.1930     1.2171     3.2510 H       
  66 H66            6.3250    -0.2690     3.9397 H       
  67 H67            5.6910     0.7204     5.2766 H       
  68 H68            4.5817     0.0752     4.0431 H       
  69 H69            7.6780     0.5199     4.8809 H       
  70 H70            4.8914    -1.4736    -0.2744 H       
  71 H71           -0.6263     1.9352    -1.5121 H       
  72 H72            7.4880     3.4494     5.7169 H       
  73 H73            6.1952     2.2370     5.8816 H       
  74 H74            7.6992     2.0672     6.8184 H       
  75 H75            9.8355     1.2870     3.8470 H       
  76 H76            9.6200     2.8616     4.6485 H       
  77 H77            9.5894     1.7335     6.8565 H       
  78 H78            9.8049     0.1589     6.0550 H       
  79 H79           11.8862     1.8752     5.2191 H       
  80 H80           13.9479     1.2179     9.0413 H       
  81 H81           14.1634    -0.3567     8.2398 H       
  82 H82           16.2384     0.8200     6.9937 H       
  83 H83           16.0090     1.7249     9.8945 H       
  84 H84           18.1996     2.5541    10.7531 H       
  85 H85           20.5888     3.0387    10.4257 H       
  86 H86           21.6547     2.5849     8.2556 H       
  87 H87           20.3398     1.6443     6.4015 H       
  88 H88           17.9510     1.1453     6.7107 H       
  89 H89            1.3921     0.2072    -1.2216 H       
  90 H90            2.6599     1.3483    -0.7126 H       
  91 H91            4.3854     0.0489    -1.6613 H       
  92 H92            3.3886    -1.4255    -1.6889 H       
  93 H93            3.0698    -0.1137    -2.8490 H       
@<TRIPOS>BOND
   1    1    2 1
   2    1    6 1
   3    1   42 1
   4    1   43 1
   5    2    3 1
   6    2   23 1
   7    2   44 1
   8    3    4 1
   9    3   45 1
  10    3   46 1
  11    4    5 1
  12    4   18 1
  13    4    7 1
  14    5    6 1
  15    5   19 1
  16    5   10 1
  17    6   47 1
  18    6   48 1
  19    7    8 1
  20    7   40 1
  21    7   49 1
  22    8    9 1
  23    8   22 1
  24    8   50 1
  25    9   10 1
  26    9   11 1
  27    9   51 1
  28   10   14 1
  29   10   52 1
  30   11   12 1
  31   11   15 1
  32   11   53 1
  33   12   13 1
  34   12   20 1
  35   12   17 1
  36   13   14 1
  37   13   54 1
  38   13   55 1
  39   14   56 1
  40   14   57 1
  41   15   16 1
  42   15   58 1
  43   15   59 1
  44   16   17 1
  45   16   60 1
  46   16   61 1
  47   17   21 1
  48   17   62 1
  49   19   63 1
  50   19   64 1
  51   19   65 1
  52   20   66 1
  53   20   67 1
  54   20   68 1
  55   21   24 1
  56   21   25 1
  57   21   69 1
  58   22   70 1
  59   23   71 1
  60   24   72 1
  61   24   73 1
  62   24   74 1
  63   25   26 1
  64   25   75 1
  65   25   76 1
  66   26   27 1
  67   26   77 1
  68   26   78 1
  69   27   28 am
  70   27   79 1
  71   28   29 1
  72   28   30 2
  73   29   31 1
  74   31   32 1
  75   31   80 1
  76   31   81 1
  77   32   33 2
  78   32   82 1
  79   33   34 1
  80   33   83 1
  81   34   35 ar
  82   34   39 ar
  83   35   36 ar
  84   35   84 1
  85   36   37 ar
  86   36   85 1
  87   37   38 ar
  88   37   86 1
  89   38   39 ar
  90   38   87 1
  91   39   88 1
  92   40   41 1
  93   40   89 1
  94   40   90 1
  95   41   91 1
  96   41   92 1
  97   41   93 1

#	End of record

