#	Name: ASD03331769
#	Creating user name:	WinNT
#	Creation time:	15. 06. 2019 20:39

#	Modifying user name:	WinNT
#	Modification time:	15. 06. 2019 20:39

#	Program:	/corina/corina34_cracker 3.40 0067  02.08.2006

@<TRIPOS>MOLECULE
ASD03331769
  47   50    0    0    0
SMALL
NO_CHARGES


@<TRIPOS>ATOM
   1 C1             0.0689     1.4727     1.0050 C.ar    
   2 C2             0.1126     0.1111     1.2708 C.ar    
   3 C3             1.3053    -0.5775     1.2202 C.ar    
   4 C4             2.4792     0.0957     0.8994 C.ar    
   5 C5             2.4302     1.4771     0.6300 C.ar    
   6 C6             1.2094     2.1550     0.6876 C.ar    
   7 N7             3.7915    -0.3029     0.7713 N.pl3   
   8 C8             4.5749     0.7756     0.4306 C.2     
   9 C9             3.8017     1.8851     0.3306 C.2     
  10 C10           -1.1574    -0.6218     1.6188 C.3     
  11 C11            6.0364     0.7317     0.2084 C.ar    
  12 C12            6.5986    -0.2916    -0.5559 C.ar    
  13 C13            7.9627    -0.3268    -0.7594 C.ar    
  14 C14            8.7729     0.6493    -0.2072 C.ar    
  15 C15            8.2219     1.6663     0.5520 C.ar    
  16 C16            6.8585     1.7167     0.7574 C.ar    
  17 C17            4.2675     3.2741    -0.0227 C.3     
  18 C18            4.8927     3.2626    -1.4190 C.3     
  19 C19            3.0923     4.2173    -0.0063 C.ar    
  20 C20            2.8810     5.0394     1.0848 C.ar    
  21 C21            1.8030     5.9046     1.0999 C.ar    
  22 C22            0.9365     5.9480     0.0237 C.ar    
  23 C23            1.1483     5.1266    -1.0678 C.ar    
  24 C24            2.2288     4.2645    -1.0847 C.ar    
  25 N25            5.4522     4.5839    -1.7145 N.pl3   
  26 O26            6.5597     4.6789    -2.2122 O.2     
  27 O27            4.8097     5.5875    -1.4623 O.2     
  28 H28           -0.8749     1.9963     1.0450 H       
  29 H29            1.3284    -1.6367     1.4294 H       
  30 H30            1.1676     3.2144     0.4821 H       
  31 H31            4.1148    -1.2081     0.9016 H       
  32 H32           -1.6213    -0.9979     0.7070 H       
  33 H33           -0.9254    -1.4570     2.2796 H       
  34 H34           -1.8439     0.0594     2.1214 H       
  35 H35            5.9673    -1.0545    -0.9870 H       
  36 H36            8.3990    -1.1182    -1.3508 H       
  37 H37            9.8402     0.6171    -0.3691 H       
  38 H38            8.8599     2.4248     0.9809 H       
  39 H39            6.4295     2.5112     1.3500 H       
  40 H40            5.0089     3.6047     0.7047 H       
  41 H41            5.6858     2.5158    -1.4558 H       
  42 H42            4.1289     3.0181    -2.1572 H       
  43 H43            3.5580     5.0055     1.9256 H       
  44 H44            1.6375     6.5464     1.9526 H       
  45 H45            0.0938     6.6234     0.0357 H       
  46 H46            0.4711     5.1602    -1.9085 H       
  47 H47            2.3943     3.6227    -1.9374 H       
@<TRIPOS>BOND
   1    1    2 ar
   2    1    6 ar
   3    1   28 1
   4    2    3 ar
   5    2   10 1
   6    3    4 ar
   7    3   29 1
   8    4    5 ar
   9    4    7 1
  10    5    6 ar
  11    5    9 1
  12    6   30 1
  13    7    8 1
  14    7   31 1
  15    8    9 2
  16    8   11 1
  17    9   17 1
  18   10   32 1
  19   10   33 1
  20   10   34 1
  21   11   12 ar
  22   11   16 ar
  23   12   13 ar
  24   12   35 1
  25   13   14 ar
  26   13   36 1
  27   14   15 ar
  28   14   37 1
  29   15   16 ar
  30   15   38 1
  31   16   39 1
  32   17   18 1
  33   17   19 1
  34   17   40 1
  35   18   25 1
  36   18   41 1
  37   18   42 1
  38   19   20 ar
  39   19   24 ar
  40   20   21 ar
  41   20   43 1
  42   21   22 ar
  43   21   44 1
  44   22   23 ar
  45   22   45 1
  46   23   24 ar
  47   23   46 1
  48   24   47 1
  49   25   26 2
  50   25   27 2

#	End of record

