#	Name: ASD04880459
#	Creating user name:	WinNT
#	Creation time:	15. 06. 2019 20:53

#	Modifying user name:	WinNT
#	Modification time:	15. 06. 2019 20:53

#	Program:	/corina/corina34_cracker 3.40 0067  02.08.2006

@<TRIPOS>MOLECULE
ASD04880459
  51   53    0    0    0
SMALL
NO_CHARGES


@<TRIPOS>ATOM
   1 C1             0.1798     1.4967    -1.2794 C.ar    
   2 C2             0.1096     0.1307    -1.0499 C.ar    
   3 C3            -1.1089    -0.4705    -0.8126 C.ar    
   4 C4            -2.2759     0.2971    -0.8025 C.ar    
   5 C5            -2.2047     1.6737    -1.0333 C.ar    
   6 C6            -0.9797     2.2696    -1.2652 C.ar    
   7 O7             1.3832     2.0839    -1.5132 O.3     
   8 C8             2.5319     1.2339    -1.5078 C.3     
   9 C9            -3.5795    -0.3434    -0.5495 C.2     
  10 C10           -3.8006    -1.8272    -0.3610 C.3     
  11 C11           -5.3200    -1.9500    -0.1316 C.3     
  12 N12           -5.7946    -0.5594    -0.2111 N.am    
  13 N13           -4.7049     0.2756    -0.4494 N.2     
  14 C14           -7.0738    -0.1584    -0.0716 C.2     
  15 O15           -7.9565    -0.9805     0.0579 O.2     
  16 C16           -7.4076     1.3112    -0.0766 C.3     
  17 O17           -8.8267     1.4772    -0.1016 O.3     
  18 C18           -6.8479     1.9576     1.1643 C.ar    
  19 C19           -9.3809     1.5455    -1.4170 C.3     
  20 C20           -7.4985     1.8085     2.3746 C.ar    
  21 C21           -6.9850     2.4017     3.5131 C.ar    
  22 C22           -5.8210     3.1433     3.4409 C.ar    
  23 C23           -5.1697     3.2917     2.2304 C.ar    
  24 C24           -5.6807     2.6952     1.0931 C.ar    
  25 O25           -0.9068     3.6089    -1.4897 O.3     
  26 C26           -2.1394     4.3317    -1.5085 C.3     
  27 C27           -3.9008     4.1008     2.1517 C.3     
  28 F28           -3.6186     4.6490     3.4075 F       
  29 F29           -2.8442     3.2737     1.7558 F       
  30 F30           -4.0615     5.1307     1.2187 F       
  31 H31            1.0112    -0.4638    -1.0574 H       
  32 H32           -1.1608    -1.5345    -0.6349 H       
  33 H33           -3.1046     2.2709    -1.0264 H       
  34 H34            3.4241     1.8275    -1.7068 H       
  35 H35            2.6244     0.7543    -0.5333 H       
  36 H36            2.4233     0.4714    -2.2791 H       
  37 H37           -3.5035    -2.3747    -1.2555 H       
  38 H38           -3.2521    -2.1880     0.5091 H       
  39 H39           -5.7781    -2.5569    -0.9126 H       
  40 H40           -5.5266    -2.3702     0.8528 H       
  41 H41           -6.9714     1.7798    -0.9588 H       
  42 H42          -10.4614     1.6717    -1.3499 H       
  43 H43           -8.9485     2.3924    -1.9498 H       
  44 H44           -9.1553     0.6245    -1.9545 H       
  45 H45           -8.4080     1.2290     2.4310 H       
  46 H46           -7.4938     2.2857     4.4587 H       
  47 H47           -5.4203     3.6072     4.3301 H       
  48 H48           -5.1719     2.8111     0.1475 H       
  49 H49           -1.9457     5.3738    -1.7627 H       
  50 H50           -2.8058     3.8941    -2.2519 H       
  51 H51           -2.6069     4.2784    -0.5253 H       
@<TRIPOS>BOND
   1    1    2 ar
   2    1    7 1
   3    1    6 ar
   4    2    3 ar
   5    2   31 1
   6    3    4 ar
   7    3   32 1
   8    4    5 ar
   9    4    9 1
  10    5    6 ar
  11    5   33 1
  12    6   25 1
  13    7    8 1
  14    8   34 1
  15    8   35 1
  16    8   36 1
  17    9   10 1
  18    9   13 2
  19   10   11 1
  20   10   37 1
  21   10   38 1
  22   11   12 1
  23   11   39 1
  24   11   40 1
  25   12   13 1
  26   12   14 am
  27   14   15 2
  28   14   16 1
  29   16   17 1
  30   16   18 1
  31   16   41 1
  32   17   19 1
  33   18   20 ar
  34   18   24 ar
  35   19   42 1
  36   19   43 1
  37   19   44 1
  38   20   21 ar
  39   20   45 1
  40   21   22 ar
  41   21   46 1
  42   22   23 ar
  43   22   47 1
  44   23   24 ar
  45   23   27 1
  46   24   48 1
  47   25   26 1
  48   26   49 1
  49   26   50 1
  50   26   51 1
  51   27   28 1
  52   27   29 1
  53   27   30 1

#	End of record

