#	Name: ASD02030607
#	Creating user name:	WinNT
#	Creation time:	15. 06. 2019 20:15

#	Modifying user name:	WinNT
#	Modification time:	15. 06. 2019 20:15

#	Program:	/corina/corina34_cracker 3.40 0067  02.08.2006

@<TRIPOS>MOLECULE
ASD02030607
  59   62    0    0    0
SMALL
NO_CHARGES


@<TRIPOS>ATOM
   1 C1            -0.1049     1.4259    -0.0803 C.ar    
   2 C2            -0.1554     0.0495    -0.1300 C.ar    
   3 C3             1.0262    -0.6808    -0.1601 C.ar    
   4 C4             2.2430    -0.0180    -0.1340 C.ar    
   5 C5             2.2898     1.3686    -0.0779 C.ar    
   6 C6             1.1157     2.0886    -0.0597 C.ar    
   7 C7             1.0953     3.5966    -0.0323 C.3     
   8 C8             3.6474     2.0185    -0.0238 C.3     
   9 C9             3.5675     3.4821    -0.4546 C.3     
  10 N10            2.4402     4.1038     0.2596 N.am    
  11 C11            0.6364     4.1243    -1.3931 C.3     
  12 O12            1.4708     3.5838    -2.4196 O.3     
  13 C13            1.1958     3.9556    -3.6984 C.ar    
  14 C14            2.6361     5.0999     1.1461 C.2     
  15 O15            3.7658     5.4483     1.4289 O.2     
  16 C16            1.4770     5.7689     1.7745 C.ar    
  17 C17            0.6355     4.7120    -6.3017 C.ar    
  18 C18           -0.1313     5.2045    -5.2561 C.ar    
  19 C19            0.1481     4.8268    -3.9572 C.ar    
  20 C20            1.9665     3.4680    -4.7434 C.ar    
  21 C21            1.6870     3.8456    -6.0423 C.ar    
  22 C22            1.5544     6.2097     3.0962 C.ar    
  23 C23            0.3027     5.9673     1.0463 C.ar    
  24 C24           -0.7753     6.5925     1.6377 C.ar    
  25 C25           -0.6949     7.0233     2.9501 C.ar    
  26 C26            0.4681     6.8342     3.6769 C.ar    
  27 Cl27           0.5614     7.3837     5.3210 Cl      
  28 N28            0.9879    -2.0759    -0.2158 N.pl3   
  29 O29            0.3604     5.0838    -7.5805 O.3     
  30 C30            1.1907     4.5381    -8.6076 C.3     
  31 C31           -0.2950    -2.7776    -0.1258 C.3     
  32 C32            2.2305    -2.8375    -0.3643 C.3     
  33 H33           -1.0229     1.9946    -0.0617 H       
  34 H34           -1.1082    -0.4586    -0.1452 H       
  35 H35            3.1622    -0.5846    -0.1571 H       
  36 H36            0.4043     3.9360     0.7393 H       
  37 H37            4.0300     1.9652     0.9955 H       
  38 H38            4.3267     1.4855    -0.6891 H       
  39 H39            4.4947     3.9936    -0.1962 H       
  40 H40            3.4003     3.5412    -1.5301 H       
  41 H41           -0.3967     3.8248    -1.5694 H       
  42 H42            0.7062     5.2120    -1.4033 H       
  43 H43           -0.9502     5.8791    -5.4581 H       
  44 H44           -0.4495     5.2097    -3.1431 H       
  45 H45            2.7853     2.7934    -4.5414 H       
  46 H46            2.2841     3.4621    -6.8565 H       
  47 H47            2.4614     6.0625     3.6637 H       
  48 H48            0.2385     5.6323     0.0216 H       
  49 H49           -1.6841     6.7464     1.0749 H       
  50 H50           -1.5416     7.5129     3.4081 H       
  51 H51            2.2255     4.8327    -8.4331 H       
  52 H52            1.1156     3.4508    -8.5961 H       
  53 H53            0.8643     4.9147    -9.5770 H       
  54 H54           -0.7086    -2.9081    -1.1258 H       
  55 H55           -0.1437    -3.7537     0.3350 H       
  56 H56           -0.9871    -2.1930     0.4802 H       
  57 H57            3.0809    -2.1567    -0.3244 H       
  58 H58            2.3094    -3.5652     0.4433 H       
  59 H59            2.2259    -3.3571    -1.3224 H       
@<TRIPOS>BOND
   1    1    2 ar
   2    1    6 ar
   3    1   33 1
   4    2    3 ar
   5    2   34 1
   6    3    4 ar
   7    3   28 1
   8    4    5 ar
   9    4   35 1
  10    5    6 ar
  11    5    8 1
  12    6    7 1
  13    7   10 1
  14    7   11 1
  15    7   36 1
  16    8    9 1
  17    8   37 1
  18    8   38 1
  19    9   10 1
  20    9   39 1
  21    9   40 1
  22   10   14 am
  23   11   12 1
  24   11   41 1
  25   11   42 1
  26   12   13 1
  27   13   20 ar
  28   13   19 ar
  29   14   15 2
  30   14   16 1
  31   16   23 ar
  32   16   22 ar
  33   17   18 ar
  34   17   21 ar
  35   17   29 1
  36   18   19 ar
  37   18   43 1
  38   19   44 1
  39   20   21 ar
  40   20   45 1
  41   21   46 1
  42   22   26 ar
  43   22   47 1
  44   23   24 ar
  45   23   48 1
  46   24   25 ar
  47   24   49 1
  48   25   26 ar
  49   25   50 1
  50   26   27 1
  51   28   31 1
  52   28   32 1
  53   29   30 1
  54   30   51 1
  55   30   52 1
  56   30   53 1
  57   31   54 1
  58   31   55 1
  59   31   56 1
  60   32   57 1
  61   32   58 1
  62   32   59 1

#	End of record

