#	Name: ASD01230553
#	Creating user name:	WinNT
#	Creation time:	15. 06. 2019 19:14

#	Modifying user name:	WinNT
#	Modification time:	15. 06. 2019 19:14

#	Program:	/corina/corina34_cracker 3.40 0067  02.08.2006

@<TRIPOS>MOLECULE
ASD01230553
  52   54    0    0    0
SMALL
NO_CHARGES


@<TRIPOS>ATOM
   1 S1            -0.0204     1.6504     0.0111 S.o2    
   2 N2             0.0021    -0.0041     0.0020 N.am    
   3 C3             1.0235    -0.6878    -0.4548 C.2     
   4 N4             2.1701    -0.1524    -0.9681 N.pl3   
   5 C5             2.3936     1.2846    -1.1466 C.3     
   6 C6             1.7500     2.0752    -0.0035 C.3     
   7 C7             0.8940    -2.1593    -0.3969 C.2     
   8 C8             1.9449    -2.9429    -0.8212 C.2     
   9 C9             3.1089    -2.3206    -1.2949 C.2     
  10 C10            3.1953    -0.9800    -1.3565 C.2     
  11 Cl11           4.4533    -3.2917    -1.8079 Cl      
  12 C12           -0.3491    -2.7831     0.1111 C.ar    
  13 C13           -0.3241    -3.5369     1.2850 C.ar    
  14 C14           -1.4838    -4.1159     1.7552 C.ar    
  15 C15           -2.6752    -3.9500     1.0619 C.ar    
  16 C16           -2.7038    -3.2010    -0.1068 C.ar    
  17 C17           -1.5494    -2.6138    -0.5798 C.ar    
  18 O18           -3.8161    -4.5225     1.5281 O.3     
  19 Si19          -4.6642    -3.5752     2.5497 Si      
  20 C20           -3.6122    -3.1610     4.0304 C.3     
  21 C21           -5.1545    -2.0039     1.6771 C.3     
  22 C22           -6.1946    -4.4788     3.1085 C.3     
  23 C23           -5.7920    -5.7692     3.8251 C.3     
  24 C24           -6.9902    -3.5901     4.0668 C.3     
  25 C25           -7.0586    -4.8190     1.8925 C.3     
  26 O26           -0.6346     2.0064    -1.2198 O.2     
  27 O27           -0.6110     1.9931     1.2573 O.2     
  28 H28            3.4654     1.4826    -1.1619 H       
  29 H29            1.9566     1.6015    -2.0935 H       
  30 H30            1.8741     3.1444    -0.1755 H       
  31 H31            2.2071     1.7951     0.9456 H       
  32 H32            1.8734    -4.0201    -0.7891 H       
  33 H33            4.1078    -0.5360    -1.7261 H       
  34 H34            0.6024    -3.6670     1.8244 H       
  35 H35           -1.4653    -4.6995     2.6637 H       
  36 H36           -3.6324    -3.0743    -0.6436 H       
  37 H37           -1.5733    -2.0276    -1.4866 H       
  38 H38           -2.7168    -2.6323     3.7035 H       
  39 H39           -4.1790    -2.5279     4.7131 H       
  40 H40           -3.3254    -4.0803     4.5409 H       
  41 H41           -5.7700    -2.2463     0.8108 H       
  42 H42           -5.7213    -1.3709     2.3598 H       
  43 H43           -4.2591    -1.4753     1.3502 H       
  44 H44           -5.1765    -5.5268     4.6914 H       
  45 H45           -6.6874    -6.2978     4.1520 H       
  46 H46           -5.2252    -6.4023     3.1424 H       
  47 H47           -7.2771    -2.6708     3.5562 H       
  48 H48           -7.8856    -4.1188     4.3937 H       
  49 H49           -6.3747    -3.3478     4.9331 H       
  50 H50           -6.4918    -5.4521     1.2098 H       
  51 H51           -7.9540    -5.3476     2.2194 H       
  52 H52           -7.3455    -3.8997     1.3819 H       
@<TRIPOS>BOND
   1    1    2 am
   2    1    6 1
   3    1   26 2
   4    1   27 2
   5    2    3 2
   6    3    4 1
   7    3    7 1
   8    4    5 1
   9    4   10 1
  10    5    6 1
  11    5   28 1
  12    5   29 1
  13    6   30 1
  14    6   31 1
  15    7    8 2
  16    7   12 1
  17    8    9 1
  18    8   32 1
  19    9   10 2
  20    9   11 1
  21   10   33 1
  22   12   13 ar
  23   12   17 ar
  24   13   14 ar
  25   13   34 1
  26   14   15 ar
  27   14   35 1
  28   15   16 ar
  29   15   18 1
  30   16   17 ar
  31   16   36 1
  32   17   37 1
  33   18   19 1
  34   19   20 1
  35   19   21 1
  36   19   22 1
  37   20   38 1
  38   20   39 1
  39   20   40 1
  40   21   41 1
  41   21   42 1
  42   21   43 1
  43   22   23 1
  44   22   25 1
  45   22   24 1
  46   23   44 1
  47   23   45 1
  48   23   46 1
  49   24   47 1
  50   24   48 1
  51   24   49 1
  52   25   50 1
  53   25   51 1
  54   25   52 1

#	End of record

