#	Name: ASD01913392
#	Creating user name:	WinNT
#	Creation time:	15. 06. 2019 20:01

#	Modifying user name:	WinNT
#	Modification time:	15. 06. 2019 20:01

#	Program:	/corina/corina34_cracker 3.40 0067  02.08.2006

@<TRIPOS>MOLECULE
ASD01913392
  41   43    0    0    0
SMALL
NO_CHARGES


@<TRIPOS>ATOM
   1 C1            -0.1088    -0.7293    -2.1574 C.ar    
   2 C2            -0.5444    -0.0394    -1.0305 C.ar    
   3 C3            -0.5090     1.3479    -1.0344 C.ar    
   4 N4            -0.0703     2.0065    -2.0884 N.ar    
   5 C5             0.3495     1.3829    -3.1720 C.ar    
   6 C6             0.3449     0.0026    -3.2431 C.ar    
   7 C7            -1.0134    -2.0721     0.0065 C.ar    
   8 C8             0.1623    -2.7867     0.1926 C.ar    
   9 C9             0.1520    -4.1687     0.1467 C.ar    
  10 C10           -1.0271    -4.8469    -0.0843 C.ar    
  11 C11           -2.2146    -4.1370    -0.2727 C.ar    
  12 C12           -2.2028    -2.7429    -0.2262 C.ar    
  13 C13           -3.4796    -4.8602    -0.5209 C.2     
  14 N14           -3.4882    -6.2072    -0.5658 N.am    
  15 C15           -4.6946    -6.8923    -0.6938 C.ar    
  16 O16           -4.5122    -4.2401    -0.6846 O.2     
  17 O17           -0.9983    -0.7142     0.0581 O.3     
  18 C18           -4.7090    -8.2806    -0.6234 C.ar    
  19 C19           -5.9143    -8.9485    -0.7517 C.ar    
  20 C20           -7.0679    -8.2017    -0.9468 C.ar    
  21 C21           -6.9798    -6.8246    -1.0066 C.ar    
  22 N22           -5.8174    -6.2149    -0.8760 N.ar    
  23 C23           -8.2284    -6.0079    -1.2187 C.3     
  24 C24           -8.3599    -4.9765    -0.0963 C.3     
  25 H25           -0.1198    -1.8089    -2.1836 H       
  26 H26           -0.8448     1.8935    -0.1649 H       
  27 H27            0.7017     1.9586    -4.0152 H       
  28 H28            0.6905    -0.4997    -4.1345 H       
  29 H29            1.0884    -2.2613     0.3735 H       
  30 H30            1.0699    -4.7190     0.2919 H       
  31 H31           -1.0314    -5.9263    -0.1198 H       
  32 H32           -3.1182    -2.1883    -0.3708 H       
  33 H33           -2.6545    -6.6997    -0.5090 H       
  34 H34           -3.7921    -8.8305    -0.4710 H       
  35 H35           -5.9563   -10.0266    -0.7016 H       
  36 H36           -8.0243    -8.6922    -1.0510 H       
  37 H37           -8.1683    -5.4948    -2.1785 H       
  38 H38           -9.0979    -6.6652    -1.2119 H       
  39 H39           -8.4201    -5.4897     0.8635 H       
  40 H40           -7.4904    -4.3193    -0.1030 H       
  41 H41           -9.2631    -4.3858    -0.2497 H       
@<TRIPOS>BOND
   1    1    2 ar
   2    1    6 ar
   3    1   25 1
   4    2    3 ar
   5    2   17 1
   6    3    4 ar
   7    3   26 1
   8    4    5 ar
   9    5    6 ar
  10    5   27 1
  11    6   28 1
  12    7    8 ar
  13    7   12 ar
  14    7   17 1
  15    8    9 ar
  16    8   29 1
  17    9   10 ar
  18    9   30 1
  19   10   11 ar
  20   10   31 1
  21   11   12 ar
  22   11   13 1
  23   12   32 1
  24   13   14 am
  25   13   16 2
  26   14   15 1
  27   14   33 1
  28   15   18 ar
  29   15   22 ar
  30   18   19 ar
  31   18   34 1
  32   19   20 ar
  33   19   35 1
  34   20   21 ar
  35   20   36 1
  36   21   22 ar
  37   21   23 1
  38   23   24 1
  39   23   37 1
  40   23   38 1
  41   24   39 1
  42   24   40 1
  43   24   41 1

#	End of record

