#	Name: ASD08170148
#	Creating user name:	WinNT
#	Creation time:	15. 06. 2019 21:17

#	Modifying user name:	WinNT
#	Modification time:	15. 06. 2019 21:17

#	Program:	/corina/corina34_cracker 3.40 0067  02.08.2006

@<TRIPOS>MOLECULE
ASD08170148
  96   97    0    0    0
SMALL
NO_CHARGES


@<TRIPOS>ATOM
   1 Cl1            0.0000     0.0000     0.0000 Cl      
   2 H2             0.0000     1.3700     0.0000 H       
   3 Cl3            5.0000     6.3700     5.0000 Cl      
   4 H4             5.0000     7.7400     5.0000 H       
   5 C5            16.4155    25.4813    14.2491 C.3     
   6 C6            18.2642    27.0186    13.5698 C.3     
   7 C7            19.7748    27.1392    13.3593 C.3     
   8 C8            20.1078    28.5346    12.8975 C.2     
   9 C9            16.0825    24.0860    14.7108 C.2     
  10 S10           20.1817    29.0868    11.2239 S.3     
  11 C11           20.5965    30.6533    11.7794 C.2     
  12 N12           20.6425    30.6361    13.0774 N.2     
  13 N13           20.3856    29.5452    13.6586 N.2     
  14 S14           15.6966    22.7115    13.6747 S.3     
  15 N15           16.0337    23.6791    15.9395 N.2     
  16 N16           15.7350    22.4660    16.1214 N.2     
  17 C17           15.5065    21.7372    15.0708 C.2     
  18 N18           15.1658    20.3888    15.0781 N.am    
  19 C19           15.0489    19.7296    16.2478 C.2     
  20 O20           15.2408    20.3122    17.2941 O.2     
  21 N21           20.8436    31.7600    10.9741 N.am    
  22 C22           21.1625    32.9435    11.5346 C.2     
  23 C23           21.4303    34.1426    10.6620 C.3     
  24 O24           21.2339    33.0435    12.7412 O.2     
  25 C25           14.6798    18.2685    16.2557 C.3     
  26 C26           14.6154    17.7743    17.6779 C.ar    
  27 C27           17.9261    25.6019    14.0386 C.3     
  28 C28           21.7619    35.3303    11.5283 C.ar    
  29 C29           13.4251    17.8416    18.3785 C.ar    
  30 C30           23.0752    35.5822    11.8803 C.ar    
  31 C31           13.3630    17.3900    19.6822 C.ar    
  32 C32           14.4973    16.8674    20.2893 C.ar    
  33 C33           15.6911    16.8008    19.5829 C.ar    
  34 C34           15.7454    17.2494    18.2777 C.ar    
  35 C35           23.3823    36.6696    12.6746 C.ar    
  36 C36           22.3707    37.5106    13.1192 C.ar    
  37 C37           21.0529    37.2551    12.7635 C.ar    
  38 C38           20.7529    36.1690    11.9648 C.ar    
  39 N39           14.4378    16.4094    21.6104 N.am    
  40 N40           22.6785    38.6130    13.9245 N.am    
  41 C41           23.8430    39.2693    13.7520 C.2     
  42 C42           13.3263    15.7945    22.0609 C.2     
  43 O43           12.3460    15.7122    21.3477 O.2     
  44 O44           13.3021    15.2715    23.3015 O.3     
  45 C45           12.0717    14.6241    23.7200 C.3     
  46 C46           11.7615    13.4599    22.7769 C.3     
  47 C47           12.2333    14.0955    25.1467 C.3     
  48 C48           10.9237    15.6346    23.6775 C.3     
  49 O49           24.5828    38.9641    12.8377 O.2     
  50 O50           24.1866    40.2633    14.5929 O.3     
  51 C51           25.4549    40.9259    14.3469 C.3     
  52 C52           25.4399    41.5543    12.9520 C.3     
  53 C53           25.6715    42.0183    15.3961 C.3     
  54 C54           26.5898    39.9035    14.4335 C.3     
  55 H55           15.9003    25.6861    13.3106 H       
  56 H56           16.0953    26.1998    15.0037 H       
  57 H57           17.9440    27.7371    14.3244 H       
  58 H58           17.7490    27.2234    12.6313 H       
  59 H59           20.2900    26.9344    14.2978 H       
  60 H60           20.0950    26.4207    12.6047 H       
  61 H61           15.0124    19.9228    14.2413 H       
  62 H62           20.7865    31.6800    10.0091 H       
  63 H63           22.2697    33.9300    10.0000 H       
  64 H64           20.5446    34.3635    10.0662 H       
  65 H65           13.7076    18.1368    15.7809 H       
  66 H66           15.4317    17.7009    15.7075 H       
  67 H67           18.4413    25.3971    14.9771 H       
  68 H68           18.2463    24.8835    13.2840 H       
  69 H69           12.5432    18.2481    17.9058 H       
  70 H70           23.8615    34.9278    11.5342 H       
  71 H71           12.4332    17.4434    20.2291 H       
  72 H72           16.5751    16.3953    20.0524 H       
  73 H73           16.6734    17.1975    17.7277 H       
  74 H74           24.4081    36.8655    12.9498 H       
  75 H75           20.2638    37.9071    13.1081 H       
  76 H76           19.7282    35.9700    11.6875 H       
  77 H77           15.1964    16.5344    22.2017 H       
  78 H78           22.0538    38.9048    14.6068 H       
  79 H79           12.5794    12.7400    22.8072 H       
  80 H80           10.8379    12.9739    23.0912 H       
  81 H81           11.6464    13.8365    21.7605 H       
  82 H82           12.4542    14.9249    25.8186 H       
  83 H83           11.3096    13.6095    25.4609 H       
  84 H84           13.0511    13.3756    25.1770 H       
  85 H85           10.8085    16.0112    22.6611 H       
  86 H86           10.0000    15.1486    23.9918 H       
  87 H87           11.1446    16.4640    24.3494 H       
  88 H88           24.6314    42.2828    12.8903 H       
  89 H89           26.3920    42.0518    12.7673 H       
  90 H90           25.2856    40.7761    12.2046 H       
  91 H91           25.6822    41.5706    16.3898 H       
  92 H92           26.6236    42.5158    15.2114 H       
  93 H93           24.8630    42.7468    15.3344 H       
  94 H94           26.4355    39.1252    13.6860 H       
  95 H95           27.5419    40.4009    14.2488 H       
  96 H96           26.6005    39.4558    15.4272 H       
@<TRIPOS>BOND
   1    1    2 1
   2    3    4 1
   3    5    9 1
   4    5   27 1
   5    5   55 1
   6    5   56 1
   7    6    7 1
   8    6   27 1
   9    6   57 1
  10    6   58 1
  11    7    8 1
  12    7   59 1
  13    7   60 1
  14    8   10 1
  15    8   13 2
  16    9   14 1
  17    9   15 2
  18   10   11 1
  19   11   12 2
  20   11   21 1
  21   12   13 1
  22   14   17 1
  23   15   16 1
  24   16   17 2
  25   17   18 1
  26   18   19 am
  27   18   61 1
  28   19   20 2
  29   19   25 1
  30   21   22 am
  31   21   62 1
  32   22   23 1
  33   22   24 2
  34   23   28 1
  35   23   63 1
  36   23   64 1
  37   25   26 1
  38   25   65 1
  39   25   66 1
  40   26   29 ar
  41   26   34 ar
  42   27   67 1
  43   27   68 1
  44   28   30 ar
  45   28   38 ar
  46   29   31 ar
  47   29   69 1
  48   30   35 ar
  49   30   70 1
  50   31   32 ar
  51   31   71 1
  52   32   33 ar
  53   32   39 1
  54   33   34 ar
  55   33   72 1
  56   34   73 1
  57   35   36 ar
  58   35   74 1
  59   36   37 ar
  60   36   40 1
  61   37   38 ar
  62   37   75 1
  63   38   76 1
  64   39   42 am
  65   39   77 1
  66   40   41 am
  67   40   78 1
  68   41   49 2
  69   41   50 1
  70   42   43 2
  71   42   44 1
  72   44   45 1
  73   45   46 1
  74   45   47 1
  75   45   48 1
  76   46   79 1
  77   46   80 1
  78   46   81 1
  79   47   82 1
  80   47   83 1
  81   47   84 1
  82   48   85 1
  83   48   86 1
  84   48   87 1
  85   50   51 1
  86   51   52 1
  87   51   53 1
  88   51   54 1
  89   52   88 1
  90   52   89 1
  91   52   90 1
  92   53   91 1
  93   53   92 1
  94   53   93 1
  95   54   94 1
  96   54   95 1
  97   54   96 1

#	End of record

