#	Name: ASD01230340
#	Creating user name:	WinNT
#	Creation time:	15. 06. 2019 19:14

#	Modifying user name:	WinNT
#	Modification time:	15. 06. 2019 19:14

#	Program:	/corina/corina34_cracker 3.40 0067  02.08.2006

@<TRIPOS>MOLECULE
ASD01230340
  33   34    0    0    0
SMALL
NO_CHARGES


@<TRIPOS>ATOM
   1 C1            -1.7342     0.8355     2.1163 C.ar    
   2 C2            -1.3818    -0.4540     1.7071 C.ar    
   3 C3            -0.9346    -1.3628     2.6577 C.ar    
   4 C4            -0.8561    -0.9502     3.9812 C.ar    
   5 C5            -1.2211     0.3389     4.3115 C.ar    
   6 N6            -1.6432     1.1842     3.3885 N.ar    
   7 N7            -2.1790     1.7612     1.1763 N.pl3   
   8 S8            -1.5035    -0.9194     0.0120 S.3     
   9 C9            -0.8103    -2.5393    -0.0050 C.ar    
  10 C10           -1.6342    -3.6510     0.1249 C.ar    
  11 C11           -1.0875    -4.9188     0.1112 C.ar    
  12 C12            0.2784    -5.0832    -0.0312 C.ar    
  13 C13            1.1015    -3.9792    -0.1603 C.ar    
  14 C14            0.5611    -2.7086    -0.1541 C.ar    
  15 C15            0.8713    -6.4686    -0.0452 C.3     
  16 C16            1.5956    -6.6999    -1.3729 C.3     
  17 C17            1.8652    -6.6097     1.1094 C.3     
  18 H18           -0.6550    -2.3667     2.3742 H       
  19 H19           -0.5128    -1.6321     4.7451 H       
  20 H20           -1.1606     0.6616     5.3404 H       
  21 H21           -2.2434     1.5105     0.2415 H       
  22 H22           -2.4245     2.6569     1.4563 H       
  23 H23           -2.7008    -3.5233     0.2368 H       
  24 H24           -1.7272    -5.7831     0.2121 H       
  25 H25            2.1676    -4.1114    -0.2709 H       
  26 H26            1.2038    -1.8472    -0.2602 H       
  27 H27            0.0760    -7.2053     0.0679 H       
  28 H28            2.3909    -5.9632    -1.4861 H       
  29 H29            2.0245    -7.7020    -1.3830 H       
  30 H30            0.8875    -6.5994    -2.1954 H       
  31 H31            1.3492    -6.4448     2.0552 H       
  32 H32            2.2941    -7.6117     1.0992 H       
  33 H33            2.6605    -5.8729     0.9962 H       
@<TRIPOS>BOND
   1    1    2 ar
   2    1    6 ar
   3    1    7 1
   4    2    3 ar
   5    2    8 1
   6    3    4 ar
   7    3   18 1
   8    4    5 ar
   9    4   19 1
  10    5    6 ar
  11    5   20 1
  12    7   21 1
  13    7   22 1
  14    8    9 1
  15    9   10 ar
  16    9   14 ar
  17   10   11 ar
  18   10   23 1
  19   11   12 ar
  20   11   24 1
  21   12   13 ar
  22   12   15 1
  23   13   14 ar
  24   13   25 1
  25   14   26 1
  26   15   16 1
  27   15   17 1
  28   15   27 1
  29   16   28 1
  30   16   29 1
  31   16   30 1
  32   17   31 1
  33   17   32 1
  34   17   33 1

#	End of record

