#	Name: ASD00192126
#	Creating user name:	WinNT
#	Creation time:	15. 06. 2019 18:33

#	Modifying user name:	WinNT
#	Modification time:	15. 06. 2019 18:33

#	Program:	/corina/corina34_cracker 3.40 0067  02.08.2006

@<TRIPOS>MOLECULE
ASD00192126
  47   51    0    0    0
SMALL
NO_CHARGES


@<TRIPOS>ATOM
   1 C1            -0.0169     1.3867    -0.0297 C.ar    
   2 C2             0.0020    -0.0029    -0.0704 C.ar    
   3 C3             1.1799    -0.6890    -0.0836 C.ar    
   4 C4             2.3959     0.0112    -0.0560 C.ar    
   5 C5             2.3705     1.4253    -0.0147 C.ar    
   6 C6             1.1479     2.0989    -0.0020 C.ar    
   7 N7             3.5672    -0.6421    -0.0678 N.ar    
   8 C8             4.7270    -0.0217    -0.0424 C.ar    
   9 C9             4.8177     1.3789    -0.0009 C.ar    
  10 C10            3.6460     2.1427     0.0138 C.ar    
  11 N11            5.8568     2.2826     0.0325 N.pl3   
  12 C12            5.3127     3.5195     0.0656 C.2     
  13 N13            4.0106     3.4327     0.0543 N.2     
  14 N14            5.8929    -0.7722    -0.0567 N.pl3   
  15 C15            6.0938     4.8076     0.1087 C.3     
  16 C16            6.4565     5.1359     1.5583 C.3     
  17 C17            7.2495     6.4436     1.6020 C.3     
  18 C18            8.5296     6.2916     0.7779 C.3     
  19 C19            8.1669     5.9634    -0.6717 C.3     
  20 C20            7.3739     4.6556    -0.7154 C.3     
  21 C21            7.1336    -0.1536    -0.1686 C.2     
  22 C22            5.8432    -2.2357     0.0522 C.3     
  23 C23            6.9055    -2.6917     1.0212 C.2     
  24 C24            8.0122    -1.9669     1.1833 C.2     
  25 C25            8.1929    -0.7239     0.4303 C.2     
  26 Cl26           6.6866    -4.1581     1.9243 Cl      
  27 Cl27           9.7631     0.0065     0.3084 Cl      
  28 H28           -0.9625     1.9084    -0.0245 H       
  29 H29           -0.9307    -0.5470    -0.0914 H       
  30 H30            1.1774    -1.7685    -0.1149 H       
  31 H31            1.1233     3.1782     0.0291 H       
  32 H32            6.8033     2.0706     0.0327 H       
  33 H33            5.4884     5.6137    -0.3059 H       
  34 H34            5.5445     5.2442     2.1454 H       
  35 H35            7.0619     4.3299     1.9729 H       
  36 H36            6.6440     7.2497     1.1875 H       
  37 H37            7.5079     6.6775     2.6348 H       
  38 H38            9.0945     7.2233     0.8091 H       
  39 H39            9.1350     5.4856     1.1925 H       
  40 H40            7.5615     6.7694    -1.0863 H       
  41 H41            9.0788     5.8551    -1.2588 H       
  42 H42            7.9793     3.8496    -0.3009 H       
  43 H43            7.1155     4.4217    -1.7482 H       
  44 H44            7.2435     0.7653    -0.7254 H       
  45 H45            4.8622    -2.5413     0.4159 H       
  46 H46            6.0263    -2.6807    -0.9258 H       
  47 H47            8.7757    -2.2948     1.8733 H       
@<TRIPOS>BOND
   1    1    2 ar
   2    1    6 ar
   3    1   28 1
   4    2    3 ar
   5    2   29 1
   6    3    4 ar
   7    3   30 1
   8    4    5 ar
   9    4    7 ar
  10    5    6 ar
  11    5   10 ar
  12    6   31 1
  13    7    8 ar
  14    8    9 ar
  15    8   14 1
  16    9   10 ar
  17    9   11 1
  18   10   13 1
  19   11   12 1
  20   11   32 1
  21   12   13 2
  22   12   15 1
  23   14   21 1
  24   14   22 1
  25   15   16 1
  26   15   20 1
  27   15   33 1
  28   16   17 1
  29   16   34 1
  30   16   35 1
  31   17   18 1
  32   17   36 1
  33   17   37 1
  34   18   19 1
  35   18   38 1
  36   18   39 1
  37   19   20 1
  38   19   40 1
  39   19   41 1
  40   20   42 1
  41   20   43 1
  42   21   25 2
  43   21   44 1
  44   22   23 1
  45   22   45 1
  46   22   46 1
  47   23   24 2
  48   23   26 1
  49   24   25 1
  50   24   47 1
  51   25   27 1

#	End of record

