#	Name: ASD01810485
#	Creating user name:	WinNT
#	Creation time:	15. 06. 2019 19:24

#	Modifying user name:	WinNT
#	Modification time:	15. 06. 2019 19:24

#	Program:	/corina/corina34_cracker 3.40 0067  02.08.2006

@<TRIPOS>MOLECULE
ASD01810485
  62   65    0    0    0
SMALL
NO_CHARGES


@<TRIPOS>ATOM
   1 C1            -0.0277     1.4760    -0.5943 C.2     
   2 C2             0.0121     0.0007    -0.6649 C.ar    
   3 C3             1.1610    -0.6597    -1.1197 C.ar    
   4 C4             1.1477    -2.0413    -1.1663 C.ar    
   5 C5             0.0096    -2.7223    -0.7656 C.ar    
   6 N6            -1.0588    -2.0727    -0.3413 N.ar    
   7 C7            -1.0919    -0.7580    -0.2741 C.ar    
   8 O8             0.9416     2.1271    -0.9325 O.2     
   9 N9            -1.1406     2.1001    -0.1603 N.am    
  10 C10           -1.1459     3.4897    -0.0001 C.ar    
  11 C11           -2.3127     4.2109    -0.2252 C.ar    
  12 C12           -2.3230     5.5840    -0.0682 C.ar    
  13 C13           -1.1747     6.2485     0.3127 C.ar    
  14 C14            0.0021     5.5335     0.5412 C.ar    
  15 C15            0.0110     4.1469     0.3888 C.ar    
  16 C16           -3.5705     3.4933    -0.6423 C.3     
  17 C17           -1.1914     7.7459     0.4814 C.3     
  18 C18           -0.7751     8.4117    -0.8318 C.3     
  19 C19            1.2337     6.2428     0.9489 C.2     
  20 O20            1.6777     7.1371     0.2557 O.2     
  21 N21            1.8640     5.8977     2.0891 N.am    
  22 C22            3.0433     6.6444     2.5480 C.3     
  23 C23            2.8057     7.1036     3.9900 C.3     
  24 C24            2.4531     5.8917     4.8555 C.3     
  25 C25            1.1657     5.2483     4.3352 C.3     
  26 C26            1.3814     4.7716     2.8999 C.3     
  27 F27            3.4953     4.9600     4.7997 F       
  28 C28            2.2520     6.3348     6.2818 C.ar    
  29 C29            2.2331     5.3963     7.2983 C.ar    
  30 C30            2.0495     5.7949     8.6061 C.ar    
  31 C31            1.8828     7.1491     8.9029 C.ar    
  32 C32            1.9033     8.0909     7.8722 C.ar    
  33 C33            2.0927     7.6788     6.5694 C.ar    
  34 C34            1.6912     7.5701    10.2581 C.1     
  35 N35            1.5392     7.9041    11.3332 N.1     
  36 Cl36          -0.0123    -4.4573    -0.8228 Cl      
  37 H37            2.0345    -0.1035    -1.4264 H       
  38 H38            2.0152    -2.5840    -1.5118 H       
  39 H39           -1.9826    -0.2625     0.0828 H       
  40 H40           -1.9380     1.5857     0.0409 H       
  41 H41           -3.2325     6.1391    -0.2446 H       
  42 H42            0.9174     3.5879     0.5685 H       
  43 H43           -4.1354     3.2052     0.2443 H       
  44 H44           -4.1776     4.1541    -1.2611 H       
  45 H45           -3.3082     2.6017    -1.2117 H       
  46 H46           -2.1967     8.0700     0.7503 H       
  47 H47           -0.4947     8.0305     1.2699 H       
  48 H48           -0.7871     9.4948    -0.7097 H       
  49 H49            0.2303     8.0876    -1.1007 H       
  50 H50           -1.4717     8.1271    -1.6203 H       
  51 H51            3.9215     5.9999     2.5097 H       
  52 H52            3.1972     7.5135     1.9084 H       
  53 H53            3.7097     7.5751     4.3753 H       
  54 H54            1.9835     7.8188     4.0133 H       
  55 H55            0.9025     4.3993     4.9661 H       
  56 H56            0.3589     5.9810     4.3552 H       
  57 H57            0.4390     4.4054     2.4925 H       
  58 H58            2.1213     3.9712     2.8910 H       
  59 H59            2.3622     4.3492     7.0673 H       
  60 H60            2.0343     5.0613     9.3985 H       
  61 H61            1.7750     9.1399     8.0948 H       
  62 H62            2.1129     8.4065     5.7716 H       
@<TRIPOS>BOND
   1    1    2 1
   2    1    8 2
   3    1    9 am
   4    2    3 ar
   5    2    7 ar
   6    3    4 ar
   7    3   37 1
   8    4    5 ar
   9    4   38 1
  10    5    6 ar
  11    5   36 1
  12    6    7 ar
  13    7   39 1
  14    9   10 1
  15    9   40 1
  16   10   11 ar
  17   10   15 ar
  18   11   12 ar
  19   11   16 1
  20   12   13 ar
  21   12   41 1
  22   13   14 ar
  23   13   17 1
  24   14   15 ar
  25   14   19 1
  26   15   42 1
  27   16   43 1
  28   16   44 1
  29   16   45 1
  30   17   18 1
  31   17   46 1
  32   17   47 1
  33   18   48 1
  34   18   49 1
  35   18   50 1
  36   19   20 2
  37   19   21 am
  38   21   22 1
  39   21   26 1
  40   22   23 1
  41   22   51 1
  42   22   52 1
  43   23   24 1
  44   23   53 1
  45   23   54 1
  46   24   25 1
  47   24   27 1
  48   24   28 1
  49   25   26 1
  50   25   55 1
  51   25   56 1
  52   26   57 1
  53   26   58 1
  54   28   29 ar
  55   28   33 ar
  56   29   30 ar
  57   29   59 1
  58   30   31 ar
  59   30   60 1
  60   31   32 ar
  61   31   34 1
  62   32   33 ar
  63   32   61 1
  64   33   62 1
  65   34   35 3

#	End of record

