#	Name: ASD01910219
#	Creating user name:	WinNT
#	Creation time:	15. 06. 2019 19:55

#	Modifying user name:	WinNT
#	Modification time:	15. 06. 2019 19:55

#	Program:	/corina/corina34_cracker 3.40 0067  02.08.2006

@<TRIPOS>MOLECULE
ASD01910219
  44   47    0    0    0
SMALL
NO_CHARGES


@<TRIPOS>ATOM
   1 C1             0.9974     1.4956    -0.4145 C.2     
   2 C2             0.9813    -0.0113    -0.4142 C.3     
   3 C3             0.8899    -0.5208     1.0260 C.3     
   4 C4             0.9065    -2.0511     1.0295 C.3     
   5 C5            -0.3073    -2.5728     0.2541 C.3     
   6 N6            -0.3055    -1.9724    -1.0869 N.am    
   7 C7            -0.2317    -0.5098    -1.2060 C.3     
   8 C8            -0.3704    -2.7485    -2.1868 C.2     
   9 C9            -0.3597    -4.2198    -2.0544 C.ar    
  10 O10           -0.4377    -2.2378    -3.2880 O.2     
  11 C11           -1.2384    -4.8502    -1.1708 C.ar    
  12 C12           -1.2246    -6.2233    -1.0515 C.ar    
  13 C13           -0.3404    -6.9785    -1.8068 C.ar    
  14 C14            0.5345    -6.3576    -2.6852 C.ar    
  15 C15            0.5251    -4.9855    -2.8166 C.ar    
  16 N16            1.9479     2.2634    -0.8862 N.2     
  17 C17            1.5305     3.5315    -0.6718 C.2     
  18 N18            0.3625     3.4600    -0.0882 N.2     
  19 O19            0.0416     2.2999     0.0613 O.3     
  20 C20            2.2614     4.7724    -1.0311 C.ar    
  21 C21            1.7056     6.0175    -0.7476 C.ar    
  22 C22            2.3913     7.1701    -1.0842 C.ar    
  23 C23            3.6283     7.0863    -1.7019 C.ar    
  24 C24            4.1827     5.8513    -1.9851 C.ar    
  25 C25            3.5086     4.6952    -1.6479 C.ar    
  26 F26            1.8541     8.3791    -0.8107 F       
  27 F27           -0.3309    -8.3240    -1.6860 F       
  28 H28            1.8957    -0.3850    -0.8750 H       
  29 H29            1.7391    -0.1471     1.5980 H       
  30 H30           -0.0365    -0.1667     1.4783 H       
  31 H31            1.8214    -2.4061     0.5549 H       
  32 H32            0.8650    -2.4130     2.0568 H       
  33 H33           -0.2476    -3.6578     0.1687 H       
  34 H34           -1.2222    -2.2952     0.7776 H       
  35 H35           -1.1404    -0.0639    -0.8016 H       
  36 H36           -0.1222    -0.2337    -2.2547 H       
  37 H37           -1.9273    -4.2629    -0.5818 H       
  38 H38           -1.9035    -6.7119    -0.3682 H       
  39 H39            1.2215    -6.9505    -3.2709 H       
  40 H40            1.2067    -4.5029    -3.5013 H       
  41 H41            0.7410     6.0827    -0.2663 H       
  42 H42            4.1615     7.9884    -1.9635 H       
  43 H43            5.1473     5.7915    -2.4671 H       
  44 H44            3.9434     3.7318    -1.8696 H       
@<TRIPOS>BOND
   1    1    2 1
   2    1   16 2
   3    1   19 1
   4    2    3 1
   5    2    7 1
   6    2   28 1
   7    3    4 1
   8    3   29 1
   9    3   30 1
  10    4    5 1
  11    4   31 1
  12    4   32 1
  13    5    6 1
  14    5   33 1
  15    5   34 1
  16    6    7 1
  17    6    8 am
  18    7   35 1
  19    7   36 1
  20    8    9 1
  21    8   10 2
  22    9   11 ar
  23    9   15 ar
  24   11   12 ar
  25   11   37 1
  26   12   13 ar
  27   12   38 1
  28   13   14 ar
  29   13   27 1
  30   14   15 ar
  31   14   39 1
  32   15   40 1
  33   16   17 1
  34   17   18 2
  35   17   20 1
  36   18   19 1
  37   20   21 ar
  38   20   25 ar
  39   21   22 ar
  40   21   41 1
  41   22   23 ar
  42   22   26 1
  43   23   24 ar
  44   23   42 1
  45   24   25 ar
  46   24   43 1
  47   25   44 1

#	End of record

