#	Name: ASD01880417
#	Creating user name:	WinNT
#	Creation time:	15. 06. 2019 19:40

#	Modifying user name:	WinNT
#	Modification time:	15. 06. 2019 19:40

#	Program:	/corina/corina34_cracker 3.40 0067  02.08.2006

@<TRIPOS>MOLECULE
ASD01880417
  21   20    0    0    0
SMALL
NO_CHARGES


@<TRIPOS>ATOM
   1 O1            -0.0161     1.3381     0.0094 O.3     
   2 C2             0.0021    -0.0041     0.0020 C.2     
   3 O3             1.0565    -0.5939    -0.0112 O.2     
   4 C4            -1.2926    -0.7753     0.0102 C.3     
   5 C5            -1.8454    -0.8287     1.4359 C.3     
   6 C6            -3.2191    -1.5022     1.4254 C.3     
   7 P7            -3.8777    -1.5659     3.1240 P.3     
   8 O8            -3.8936    -0.2020     3.6984 O.2     
   9 O9            -5.3761    -2.1543     3.0970 O.3     
  10 O10           -2.9437    -2.5174     4.0265 O.3     
  11 N11           -1.0519    -2.1414    -0.4731 N.3     
  12 H12            0.8394     1.7888     0.0037 H       
  13 H13           -2.0139    -0.2813    -0.6408 H       
  14 H14           -1.1655    -1.3999     2.0680 H       
  15 H15           -1.9404     0.1843     1.8269 H       
  16 H16           -3.8990    -0.9310     0.7932 H       
  17 H17           -3.1241    -2.5152     1.0343 H       
  18 H18           -5.7900    -2.2166     3.9687 H       
  19 H19           -2.8867    -3.4287     3.7082 H       
  20 H20           -0.7475    -2.1362    -1.4351 H       
  21 H21           -0.3861    -2.6207     0.1143 H       
@<TRIPOS>BOND
   1    1    2 1
   2    1   12 1
   3    2    3 2
   4    2    4 1
   5    4    5 1
   6    4   11 1
   7    4   13 1
   8    5    6 1
   9    5   14 1
  10    5   15 1
  11    6    7 1
  12    6   16 1
  13    6   17 1
  14    7    8 2
  15    7    9 1
  16    7   10 1
  17    9   18 1
  18   10   19 1
  19   11   20 1
  20   11   21 1

#	End of record

