#	Name: ASD00110012
#	Creating user name:	WinNT
#	Creation time:	15. 06. 2019 18:30

#	Modifying user name:	WinNT
#	Modification time:	15. 06. 2019 18:30

#	Program:	/corina/corina34_cracker 3.40 0067  02.08.2006

@<TRIPOS>MOLECULE
ASD00110012
  75   76    0    0    0
SMALL
NO_CHARGES


@<TRIPOS>ATOM
   1 N1            -0.0178     1.4642     0.0101 N.3     
   2 C2             0.0021    -0.0041     0.0020 C.3     
   3 C3             0.7039    -0.5130     1.2631 C.3     
   4 C4             2.1331     0.0352     1.3025 C.3     
   5 C5             2.0858     1.5651     1.2611 C.3     
   6 C6             1.3439     2.0138     0.0000 C.3     
   7 C7             1.2776     3.5190    -0.0348 C.2     
   8 N8             2.3446     4.2310    -0.4485 N.am    
   9 O9             0.2643     4.0895     0.3094 O.2     
  10 C10            2.2802     5.6942    -0.4824 C.3     
  11 C11            2.6280     6.2522     0.8991 C.3     
  12 C12            2.8202    -0.4204     2.5913 C.3     
  13 C13            2.9716    -1.9428     2.5778 C.3     
  14 C14            3.6587    -2.3985     3.8667 C.3     
  15 C15            3.8101    -3.9209     3.8532 C.3     
  16 C16            4.4972    -4.3766     5.1420 C.3     
  17 C17            4.6486    -5.8990     5.1285 C.3     
  18 C18            5.3357    -6.3547     6.4174 C.3     
  19 C19            5.4871    -7.8771     6.4038 C.3     
  20 C20            6.1742    -8.3327     7.6927 C.3     
  21 C21            6.3256    -9.8552     7.6792 C.3     
  22 C22            7.0127   -10.3108     8.9680 C.3     
  23 O23            3.9876     5.9407     1.2101 O.3     
  24 C24            3.2787     6.2249    -1.5130 C.3     
  25 O25            4.5991     5.8144    -1.1522 O.3     
  26 C26            2.9361     5.6753    -2.8738 C.ar    
  27 C27            2.3080     4.6673    -5.3704 C.ar    
  28 C28            2.9979     3.8854    -4.4628 C.ar    
  29 C29            3.3122     4.3896    -3.2146 C.ar    
  30 C30            2.2408     6.4550    -3.7790 C.ar    
  31 C31            1.9265     5.9509    -5.0272 C.ar    
  32 H32           -0.5582     1.8228    -0.7629 H       
  33 H33           -1.0204    -0.3810    -0.0218 H       
  34 H34            0.5390    -0.3552    -0.8792 H       
  35 H35            0.1597    -0.1738     2.1445 H       
  36 H36            0.7324    -1.6025     1.2493 H       
  37 H37            2.6892    -0.3354     0.4414 H       
  38 H38            1.5633     1.9370     2.1425 H       
  39 H39            3.1015     1.9603     1.2458 H       
  40 H40            1.8745     1.6533    -0.8812 H       
  41 H41            3.1550     3.7747    -0.7238 H       
  42 H42            1.2730     6.0073    -0.7577 H       
  43 H43            2.4942     7.3339     0.8983 H       
  44 H44            1.9727     5.8055     1.6469 H       
  45 H45            3.8048     0.0420     2.6612 H       
  46 H46            2.2173    -0.1228     3.4493 H       
  47 H47            1.9870    -2.4053     2.5079 H       
  48 H48            3.5745    -2.2404     1.7199 H       
  49 H49            4.6433    -1.9361     3.9366 H       
  50 H50            3.0558    -2.1009     4.7246 H       
  51 H51            2.8255    -4.3833     3.7833 H       
  52 H52            4.4130    -4.2185     2.9952 H       
  53 H53            5.4818    -3.9142     5.2119 H       
  54 H54            3.8943    -4.0790     6.0000 H       
  55 H55            3.6640    -6.3614     5.0586 H       
  56 H56            5.2515    -6.1966     4.2706 H       
  57 H57            6.3203    -5.8922     6.4872 H       
  58 H58            4.7328    -6.0571     7.2753 H       
  59 H59            4.5025    -8.3395     6.3340 H       
  60 H60            6.0900    -8.1747     5.5459 H       
  61 H61            7.1588    -7.8703     7.7626 H       
  62 H62            5.5713    -8.0352     8.5506 H       
  63 H63            5.3410   -10.3176     7.6093 H       
  64 H64            6.9285   -10.1527     6.8212 H       
  65 H65            6.4098   -10.0132     9.8260 H       
  66 H66            7.1206   -11.3954     8.9584 H       
  67 H67            7.9973    -9.8484     9.0379 H       
  68 H68            4.2777     6.2647     2.0737 H       
  69 H69            3.2308     7.3136    -1.5382 H       
  70 H70            4.7151     4.8554    -1.1101 H       
  71 H71            2.0624     4.2735    -6.3455 H       
  72 H72            3.2959     2.8826    -4.7309 H       
  73 H73            3.8519     3.7790    -2.5059 H       
  74 H74            1.9427     7.4579    -3.5110 H       
  75 H75            1.3875     6.5618    -5.7363 H       
@<TRIPOS>BOND
   1    1    2 1
   2    1    6 1
   3    1   32 1
   4    2    3 1
   5    2   33 1
   6    2   34 1
   7    3    4 1
   8    3   35 1
   9    3   36 1
  10    4    5 1
  11    4   12 1
  12    4   37 1
  13    5    6 1
  14    5   38 1
  15    5   39 1
  16    6    7 1
  17    6   40 1
  18    7    8 am
  19    7    9 2
  20    8   10 1
  21    8   41 1
  22   10   11 1
  23   10   24 1
  24   10   42 1
  25   11   23 1
  26   11   43 1
  27   11   44 1
  28   12   13 1
  29   12   45 1
  30   12   46 1
  31   13   14 1
  32   13   47 1
  33   13   48 1
  34   14   15 1
  35   14   49 1
  36   14   50 1
  37   15   16 1
  38   15   51 1
  39   15   52 1
  40   16   17 1
  41   16   53 1
  42   16   54 1
  43   17   18 1
  44   17   55 1
  45   17   56 1
  46   18   19 1
  47   18   57 1
  48   18   58 1
  49   19   20 1
  50   19   59 1
  51   19   60 1
  52   20   21 1
  53   20   61 1
  54   20   62 1
  55   21   22 1
  56   21   63 1
  57   21   64 1
  58   22   65 1
  59   22   66 1
  60   22   67 1
  61   23   68 1
  62   24   25 1
  63   24   26 1
  64   24   69 1
  65   25   70 1
  66   26   30 ar
  67   26   29 ar
  68   27   28 ar
  69   27   31 ar
  70   27   71 1
  71   28   29 ar
  72   28   72 1
  73   29   73 1
  74   30   31 ar
  75   30   74 1
  76   31   75 1

#	End of record

