#	Name: ASD03332017
#	Creating user name:	WinNT
#	Creation time:	15. 06. 2019 20:40

#	Modifying user name:	WinNT
#	Modification time:	15. 06. 2019 20:40

#	Program:	/corina/corina34_cracker 3.40 0067  02.08.2006

@<TRIPOS>MOLECULE
ASD03332017
  63   65    0    0    0
SMALL
NO_CHARGES


@<TRIPOS>ATOM
   1 C1             0.3440     1.7135     1.5257 C.2     
   2 N2             0.3723     0.4225     1.9321 N.pl3   
   3 C3             1.5966    -0.0858     1.6031 C.2     
   4 N4             2.3034     0.8638     1.0325 N.2     
   5 C5             1.5588     1.9886     0.9728 C.2     
   6 C6             1.9840     3.2827     0.4104 C.2     
   7 O7             1.2187     4.2279     0.4134 O.2     
   8 N8             3.2209     3.4188    -0.1072 N.am    
   9 C9             3.6436     4.7052    -0.6662 C.3     
  10 C10            3.1827     4.8049    -2.1218 C.3     
  11 C11            3.8384     3.6919    -2.9417 C.3     
  12 C12            5.1458     4.8096    -0.6067 C.2     
  13 C13            1.6613     4.6572    -2.1863 C.3     
  14 C14            3.5877     6.1653    -2.6929 C.3     
  15 O15            5.8139     3.8222    -0.3837 O.2     
  16 N16            5.7468     6.0002    -0.8011 N.am    
  17 C17            7.2091     6.0884    -0.8180 C.3     
  18 C18           -0.7181    -0.2784     2.6158 C.3     
  19 C19           -2.0318    -0.0064     1.8766 C.3     
  20 C20           -2.6698     1.2713     2.4128 C.3     
  21 N21           -1.6478     2.2443     2.8045 N.3     
  22 C22           -0.8285     2.6514     1.6534 C.3     
  23 C23           -2.2551     3.4116     3.4575 C.3     
  24 C24            2.0486    -1.4662     1.8468 C.2     
  25 C25            2.0115    -1.9358     3.0775 C.2     
  26 C26            2.4556    -3.3246     3.4371 C.3     
  27 N27            2.5271    -4.1629     2.2337 N.3     
  28 C28            3.3214    -3.4922     1.1913 C.3     
  29 C29            2.5281    -2.2848     0.6806 C.3     
  30 H30            3.8313     2.6649    -0.1096 H       
  31 H31            3.1999     5.5159    -0.0883 H       
  32 H32            3.5499     2.7228    -2.5348 H       
  33 H33            3.5101     3.7630    -3.9786 H       
  34 H34            4.9224     3.7972    -2.8957 H       
  35 H35            1.1941     5.4501    -1.6021 H       
  36 H36            1.3330     4.7282    -3.2232 H       
  37 H37            1.3728     3.6880    -1.7794 H       
  38 H38            4.6567     6.3181    -2.5444 H       
  39 H39            3.3612     6.1939    -3.7587 H       
  40 H40            3.0337     6.9532    -2.1825 H       
  41 H41            5.2112     6.7986    -0.9299 H       
  42 H42            7.5087     7.1228    -0.9865 H       
  43 H43            7.6047     5.7468     0.1385 H       
  44 H44            7.6017     5.4614    -1.6184 H       
  45 H45           -0.5170    -1.3497     2.6191 H       
  46 H46           -0.7960     0.0818     3.6416 H       
  47 H47           -1.8315     0.1079     0.8113 H       
  48 H48           -2.7134    -0.8434     2.0287 H       
  49 H49           -3.3017     1.7077     1.6393 H       
  50 H50           -3.2835     1.0281     3.2802 H       
  51 H51           -0.4668     3.6684     1.8051 H       
  52 H52           -1.4296     2.6090     0.7451 H       
  53 H53           -2.7920     3.0902     4.3500 H       
  54 H54           -1.4741     4.1183     3.7380 H       
  55 H55           -2.9500     3.8925     2.7690 H       
  56 H56            1.6452    -1.2923     3.8637 H       
  57 H57            3.4393    -3.2794     3.9045 H       
  58 H58            1.7447    -3.7606     4.1390 H       
  59 H59            2.9071    -5.0725     2.4487 H       
  60 H60            4.2707    -3.1599     1.6114 H       
  61 H61            3.5039    -4.1836     0.3686 H       
  62 H62            1.6746    -2.6318     0.0980 H       
  63 H63            3.1702    -1.6692     0.0507 H       
@<TRIPOS>BOND
   1    1    2 1
   2    1    5 2
   3    1   22 1
   4    2    3 1
   5    2   18 1
   6    3    4 2
   7    3   24 1
   8    4    5 1
   9    5    6 1
  10    6    7 2
  11    6    8 am
  12    8    9 1
  13    8   30 1
  14    9   10 1
  15    9   12 1
  16    9   31 1
  17   10   11 1
  18   10   13 1
  19   10   14 1
  20   11   32 1
  21   11   33 1
  22   11   34 1
  23   12   15 2
  24   12   16 am
  25   13   35 1
  26   13   36 1
  27   13   37 1
  28   14   38 1
  29   14   39 1
  30   14   40 1
  31   16   17 1
  32   16   41 1
  33   17   42 1
  34   17   43 1
  35   17   44 1
  36   18   19 1
  37   18   45 1
  38   18   46 1
  39   19   20 1
  40   19   47 1
  41   19   48 1
  42   20   21 1
  43   20   49 1
  44   20   50 1
  45   21   22 1
  46   21   23 1
  47   22   51 1
  48   22   52 1
  49   23   53 1
  50   23   54 1
  51   23   55 1
  52   24   25 2
  53   24   29 1
  54   25   26 1
  55   25   56 1
  56   26   27 1
  57   26   57 1
  58   26   58 1
  59   27   28 1
  60   27   59 1
  61   28   29 1
  62   28   60 1
  63   28   61 1
  64   29   62 1
  65   29   63 1

#	End of record

