#	Name: ASD01884740
#	Creating user name:	WinNT
#	Creation time:	15. 06. 2019 19:48

#	Modifying user name:	WinNT
#	Modification time:	15. 06. 2019 19:48

#	Program:	/corina/corina34_cracker 3.40 0067  02.08.2006

@<TRIPOS>MOLECULE
ASD01884740
  53   56    0    0    0
SMALL
NO_CHARGES


@<TRIPOS>ATOM
   1 C1            -0.0169     1.3882     0.0418 C.2     
   2 C2             0.0019    -0.0042     0.0349 C.2     
   3 C3            -1.2135    -0.6983     0.0098 C.2     
   4 C4            -2.3898    -0.0118    -0.0077 C.2     
   5 N5            -2.4100     1.3457    -0.0009 N.am    
   6 C6            -1.2677     2.0576     0.0293 C.2     
   7 O7            -1.3080     3.2764     0.0351 O.2     
   8 C8            -3.6959     2.0472    -0.0209 C.3     
   9 C9             1.2063     2.1324     0.0672 C.1     
  10 N10            2.1766     2.7227     0.0873 N.1     
  11 C11           -4.1701     2.2839     1.4144 C.3     
  12 C12           -5.5131     3.0166     1.3936 C.3     
  13 C13           -6.5754     2.1164     0.7597 C.3     
  14 C14           -5.9269     3.3637     2.8251 C.3     
  15 N15           -1.2200    -2.1015     0.0024 N.pl3   
  16 C16           -2.4822    -2.8439     0.1201 C.3     
  17 C17           -2.5831    -3.8350    -1.0438 C.3     
  18 C18           -1.3339    -4.7185    -1.0641 C.3     
  19 C19           -0.0957    -3.8387    -1.2898 C.3     
  20 C20            0.0348    -2.8544    -0.1294 C.3     
  21 O21           -1.4245    -5.6469    -2.1505 O.3     
  22 C22           -0.2773    -6.2943    -2.4945 C.ar    
  23 C23            0.9606    -5.8151    -2.0831 C.ar    
  24 O24            1.0552    -4.6900    -1.3224 O.3     
  25 C25           -0.3503    -7.4456    -3.2645 C.ar    
  26 C26            0.8055    -8.1130    -3.6231 C.ar    
  27 C27            2.0372    -7.6353    -3.2154 C.ar    
  28 C28            2.1168    -6.4891    -2.4475 C.ar    
  29 H29            0.9395    -0.5402     0.0482 H       
  30 H30           -3.3221    -0.5565    -0.0277 H       
  31 H31           -3.5794     3.0052    -0.5276 H       
  32 H32           -4.4315     1.4427    -0.5515 H       
  33 H33           -4.2867     1.3259     1.9212 H       
  34 H34           -3.4345     2.8885     1.9450 H       
  35 H35           -5.4182     3.9327     0.8106 H       
  36 H36           -6.6703     1.2003     1.3427 H       
  37 H37           -7.5322     2.6384     0.7448 H       
  38 H38           -6.2806     1.8691    -0.2602 H       
  39 H39           -5.1701     4.0050     3.2768 H       
  40 H40           -6.8837     3.8857     2.8103 H       
  41 H41           -6.0218     2.4476     3.4081 H       
  42 H42           -2.4997    -3.3871     1.0650 H       
  43 H43           -3.3203    -2.1481     0.0811 H       
  44 H44           -3.4678    -4.4586    -0.9152 H       
  45 H45           -2.6567    -3.2870    -1.9832 H       
  46 H46           -1.2417    -5.2475    -0.1156 H       
  47 H47           -0.1929    -3.2928    -2.2283 H       
  48 H48            0.8556    -2.1650    -0.3274 H       
  49 H49            0.2300    -3.4036     0.7916 H       
  50 H50           -1.3112    -7.8210    -3.5839 H       
  51 H51            0.7465    -9.0094    -4.2226 H       
  52 H52            2.9387    -8.1587    -3.4976 H       
  53 H53            3.0802    -6.1181    -2.1304 H       
@<TRIPOS>BOND
   1    1    2 2
   2    1    9 1
   3    1    6 1
   4    2    3 1
   5    2   29 1
   6    3    4 2
   7    3   15 1
   8    4    5 1
   9    4   30 1
  10    5    8 1
  11    5    6 am
  12    6    7 2
  13    8   11 1
  14    8   31 1
  15    8   32 1
  16    9   10 3
  17   11   12 1
  18   11   33 1
  19   11   34 1
  20   12   13 1
  21   12   14 1
  22   12   35 1
  23   13   36 1
  24   13   37 1
  25   13   38 1
  26   14   39 1
  27   14   40 1
  28   14   41 1
  29   15   16 1
  30   15   20 1
  31   16   17 1
  32   16   42 1
  33   16   43 1
  34   17   18 1
  35   17   44 1
  36   17   45 1
  37   18   19 1
  38   18   21 1
  39   18   46 1
  40   19   20 1
  41   19   24 1
  42   19   47 1
  43   20   48 1
  44   20   49 1
  45   21   22 1
  46   22   23 ar
  47   22   25 ar
  48   23   24 1
  49   23   28 ar
  50   25   26 ar
  51   25   50 1
  52   26   27 ar
  53   26   51 1
  54   27   28 ar
  55   27   52 1
  56   28   53 1

#	End of record

