#	Name: ASD05430385
#	Creating user name:	WinNT
#	Creation time:	15. 06. 2019 21:00

#	Modifying user name:	WinNT
#	Modification time:	15. 06. 2019 21:00

#	Program:	/corina/corina34_cracker 3.40 0067  02.08.2006

@<TRIPOS>MOLECULE
ASD05430385
  61   65    0    0    0
SMALL
NO_CHARGES


@<TRIPOS>ATOM
   1 C1            -0.0675     1.5361     0.9549 C.ar    
   2 C2            -0.0069     0.1460     0.8657 C.ar    
   3 C3            -1.1541    -0.5863     0.5896 C.ar    
   4 C4            -2.3582     0.0574     0.4028 C.ar    
   5 C5            -2.4269     1.4517     0.4912 C.ar    
   6 C6            -1.2728     2.1884     0.7744 C.ar    
   7 C7            -4.8516     1.4263     0.1842 C.2     
   8 C8            -3.7116     2.1411     0.2915 C.2     
   9 N9            -7.2661     1.6034     0.4646 N.pl3   
  10 C10           -6.1283     2.0675    -0.1952 C.2     
  11 O11            1.0577     2.2496     1.2249 O.3     
  12 C12            0.9224     3.6701     1.3018 C.3     
  13 C13            1.4457    -1.5811     1.8844 C.2     
  14 N14            1.2157    -0.5143     1.0549 N.pl3   
  15 C15            2.7487    -1.8983     1.7598 C.2     
  16 N16            3.3034    -1.0517     0.8798 N.2     
  17 C17            2.3952    -0.2180     0.4505 C.2     
  18 C18            3.4605    -3.0116     2.4843 C.3     
  19 C19           -7.1278     0.4130     1.3045 C.3     
  20 C20           -6.1312    -0.5470     0.6387 C.3     
  21 O21           -4.8708     0.0814     0.4162 O.3     
  22 C22           -8.5336     2.3058     0.2886 C.3     
  23 C23           -8.6128     2.8056    -1.1584 C.3     
  24 O24           -7.4435     3.5509    -1.4829 O.3     
  25 N25           -6.2104     2.9874    -1.0956 N.2     
  26 C26           -9.6779     1.3644     0.5637 C.ar    
  27 C27          -10.4598     1.5384     1.6904 C.ar    
  28 C28          -11.7779    -0.3628     1.0682 C.ar    
  29 C29          -10.9976    -0.5326    -0.0629 C.ar    
  30 C30           -9.9483     0.3310    -0.3138 C.ar    
  31 F31          -12.8040    -1.2064     1.3146 F       
  32 C32          -11.5094     0.6758     1.9437 C.ar    
  33 C33           -5.9305    -1.7650     1.5426 C.3     
  34 C34           -8.6015     3.4949     1.2490 C.3     
  35 H35           -1.1025    -1.6629     0.5207 H       
  36 H36           -3.2488    -0.5146     0.1878 H       
  37 H37           -1.3212     3.2651     0.8435 H       
  38 H38           -3.7424     3.2190     0.2309 H       
  39 H39            0.5548     4.0522     0.3494 H       
  40 H40            0.2168     3.9256     2.0923 H       
  41 H41            1.8922     4.1161     1.5222 H       
  42 H42            0.7221    -2.0703     2.5196 H       
  43 H43            2.5549     0.5743    -0.2659 H       
  44 H44            3.4017    -3.9256     1.8933 H       
  45 H45            4.5060    -2.7400     2.6304 H       
  46 H46            2.9886    -3.1745     3.4533 H       
  47 H47           -6.7585     0.7012     2.2887 H       
  48 H48           -8.0959    -0.0778     1.4048 H       
  49 H49           -6.5384    -0.8764    -0.3172 H       
  50 H50           -8.6961     1.9524    -1.8315 H       
  51 H51           -9.4904     3.4416    -1.2736 H       
  52 H52          -10.2502     2.3486     2.3731 H       
  53 H53          -11.2087    -1.3399    -0.7486 H       
  54 H54           -9.3395     0.1987    -1.1961 H       
  55 H55          -12.1197     0.8115     2.8243 H       
  56 H56           -6.8851    -2.2704     1.6886 H       
  57 H57           -5.2238    -2.4512     1.0759 H       
  58 H58           -5.5395    -1.4412     2.5072 H       
  59 H59           -7.7779     4.1778     1.0405 H       
  60 H60           -9.5490     4.0167     1.1148 H       
  61 H61           -8.5259     3.1373     2.2759 H       
@<TRIPOS>BOND
   1    1    2 ar
   2    1   11 1
   3    1    6 ar
   4    2    3 ar
   5    2   14 1
   6    3    4 ar
   7    3   35 1
   8    4    5 ar
   9    4   36 1
  10    5    6 ar
  11    5    8 1
  12    6   37 1
  13    7    8 2
  14    7   21 1
  15    7   10 1
  16    8   38 1
  17    9   10 1
  18    9   22 1
  19    9   19 1
  20   10   25 2
  21   11   12 1
  22   12   39 1
  23   12   40 1
  24   12   41 1
  25   13   14 1
  26   13   15 2
  27   13   42 1
  28   14   17 1
  29   15   16 1
  30   15   18 1
  31   16   17 2
  32   17   43 1
  33   18   44 1
  34   18   45 1
  35   18   46 1
  36   19   20 1
  37   19   47 1
  38   19   48 1
  39   20   33 1
  40   20   21 1
  41   20   49 1
  42   22   23 1
  43   22   26 1
  44   22   34 1
  45   23   24 1
  46   23   50 1
  47   23   51 1
  48   24   25 1
  49   26   27 ar
  50   26   30 ar
  51   27   32 ar
  52   27   52 1
  53   28   29 ar
  54   28   31 1
  55   28   32 ar
  56   29   30 ar
  57   29   53 1
  58   30   54 1
  59   32   55 1
  60   33   56 1
  61   33   57 1
  62   33   58 1
  63   34   59 1
  64   34   60 1
  65   34   61 1

#	End of record

