#	Name: ASD07930704
#	Creating user name:	WinNT
#	Creation time:	15. 06. 2019 21:13

#	Modifying user name:	WinNT
#	Modification time:	15. 06. 2019 21:13

#	Program:	/corina/corina34_cracker 3.40 0067  02.08.2006

@<TRIPOS>MOLECULE
ASD07930704
  43   45    0    0    0
SMALL
NO_CHARGES


@<TRIPOS>ATOM
   1 C1            -0.0178     1.4608     0.0101 C.3     
   2 N2             0.8031    -0.4153    -2.1619 N.2     
   3 N3            -0.8796    -1.7833    -1.2911 N.pl3   
   4 C4            -0.9005    -2.8248    -0.2586 C.3     
   5 C5            -1.2102    -2.1834     1.1010 C.3     
   6 S6             0.0275    -0.8859     1.4156 S.o2    
   7 N7             0.0021    -0.0041     0.0020 N.am    
   8 C8             0.0002    -0.7257    -1.1832 C.2     
   9 C9             0.4646    -3.5132    -0.1997 C.3     
  10 O10           -0.4323     0.0192     2.4099 O.2     
  11 O11            1.3354    -1.4387     1.4687 O.2     
  12 C12           -1.9634    -3.8404    -0.5898 C.2     
  13 C13           -2.3586    -4.1649    -1.8242 C.2     
  14 S14           -2.8652    -4.7825     0.5900 S.3     
  15 C15           -3.7629    -5.5860    -0.6915 C.2     
  16 C16           -3.3489    -5.1234    -1.8878 C.2     
  17 C17           -4.8066    -6.6134    -0.4880 C.ar    
  18 C18           -5.4588    -7.1881    -1.5823 C.ar    
  19 C19           -6.4368    -8.1539    -1.3342 C.ar    
  20 C20           -6.7225    -8.5049    -0.0132 C.ar    
  21 N21           -6.0843    -7.9382     0.9902 N.ar    
  22 C22           -5.1511    -7.0279     0.7999 C.ar    
  23 C23           -7.1364    -8.7748    -2.4185 C.1     
  24 C24           -7.7100    -9.2837    -3.3074 C.1     
  25 C25           -8.4292    -9.9219    -4.4220 C.3     
  26 H26            1.0048     1.8381     0.0023 H       
  27 H27           -0.5450     1.8219    -0.8730 H       
  28 H28           -0.5280     1.8123     0.9069 H       
  29 H29            0.7883    -0.9307    -2.9835 H       
  30 H30           -1.4804    -1.8399    -2.0505 H       
  31 H31           -2.2071    -1.7432     1.0811 H       
  32 H32           -1.1573    -2.9394     1.8845 H       
  33 H33            1.2322    -2.7780     0.0418 H       
  34 H34            0.4485    -4.2871     0.5677 H       
  35 H35            0.6857    -3.9650    -1.1667 H       
  36 H36           -1.9344    -3.7100    -2.7071 H       
  37 H37           -3.7612    -5.4741    -2.8225 H       
  38 H38           -5.2136    -6.8933    -2.5920 H       
  39 H39           -7.4771    -9.2507     0.1886 H       
  40 H40           -4.6531    -6.5891     1.6519 H       
  41 H41           -9.1461   -10.6417    -4.0271 H       
  42 H42           -8.9574    -9.1610    -4.9967 H       
  43 H43           -7.7168   -10.4354    -5.0675 H       
@<TRIPOS>BOND
   1    1    7 1
   2    1   26 1
   3    1   27 1
   4    1   28 1
   5    2    8 2
   6    2   29 1
   7    3    4 1
   8    3    8 1
   9    3   30 1
  10    4    5 1
  11    4    9 1
  12    4   12 1
  13    5    6 1
  14    5   31 1
  15    5   32 1
  16    6    7 am
  17    6   10 2
  18    6   11 2
  19    7    8 1
  20    9   33 1
  21    9   34 1
  22    9   35 1
  23   12   14 1
  24   12   13 2
  25   13   16 1
  26   13   36 1
  27   14   15 1
  28   15   16 2
  29   15   17 1
  30   16   37 1
  31   17   18 ar
  32   17   22 ar
  33   18   19 ar
  34   18   38 1
  35   19   20 ar
  36   19   23 1
  37   20   21 ar
  38   20   39 1
  39   21   22 ar
  40   22   40 1
  41   23   24 3
  42   24   25 1
  43   25   41 1
  44   25   42 1
  45   25   43 1

#	End of record

