#	Name: ASD00843041
#	Creating user name:	WinNT
#	Creation time:	15. 06. 2019 18:45

#	Modifying user name:	WinNT
#	Modification time:	15. 06. 2019 18:45

#	Program:	/corina/corina34_cracker 3.40 0067  02.08.2006

@<TRIPOS>MOLECULE
ASD00843041
  87   92    0    0    0
SMALL
NO_CHARGES


@<TRIPOS>ATOM
   1 F1            -0.1005    -3.1532     4.7191 F       
   2 N2            -0.0058     1.3210     0.0334 N.ar    
   3 C3             0.0085    -0.0013     0.0173 C.ar    
   4 C4             1.2113    -0.6960    -0.0024 C.ar    
   5 C5             2.3990     0.0142    -0.0049 C.ar    
   6 C6             2.3411     1.4012     0.0125 C.ar    
   7 C7             1.1101     2.0256     0.0315 C.ar    
   8 C8             1.2227    -2.2028    -0.0203 C.3     
   9 C9             0.4754    -2.7243    -1.2289 C.2     
  10 N10            2.5991    -2.7044    -0.0123 N.am    
  11 C11            3.4464    -2.3633    -1.0034 C.2     
  12 N12            4.7400    -2.7368    -0.9424 N.am    
  13 O13            3.0438    -1.7187    -1.9524 O.2     
  14 C14            5.6548    -2.4755    -2.0640 C.3     
  15 C15            6.9055    -1.7773    -1.5195 C.3     
  16 N16            7.4741    -2.5794    -0.4281 N.3     
  17 C17            6.5399    -2.6814     0.7009 C.3     
  18 C18            5.2756    -3.4111     0.2499 C.3     
  19 C19            8.7676    -2.0353     0.0065 C.3     
  20 C20            9.2695    -2.8183     1.2228 C.3     
  21 C21           10.6448    -2.2871     1.6333 C.3     
  22 N22           11.5824    -2.4347     0.5128 N.3     
  23 C23           11.1457    -1.6533    -0.6513 C.3     
  24 C24            9.7854    -2.1656    -1.1301 C.3     
  25 C25           12.9456    -2.0634     0.9147 C.3     
  26 O26            0.7564    -2.5224    -2.3914 O.2     
  27 N27           -0.5570    -3.4531    -0.7730 N.am    
  28 C28            0.4490    -2.7522     1.1569 C.ar    
  29 C29           -0.6023    -3.4904     0.6228 C.ar    
  30 C30            0.6179    -2.6381     2.5191 C.ar    
  31 C31           -0.2648    -3.2631     3.3827 C.ar    
  32 C32           -1.3277    -4.0095     2.8637 C.ar    
  33 C33           -1.4928    -4.1213     1.4835 C.ar    
  34 C34           -1.0255    -5.8371    -2.0658 C.ar    
  35 C35            0.1524    -6.0003    -2.7799 C.ar    
  36 C36           -1.7056    -6.9438    -1.5951 C.ar    
  37 C37           -1.2128    -8.2130    -1.8349 C.ar    
  38 C38           -0.0387    -8.3784    -2.5466 C.ar    
  39 C39            0.6446    -7.2753    -3.0197 C.ar    
  40 H40            0.3442    -9.3710    -2.7326 H       
  41 O41            0.8230    -4.9133    -3.2444 O.3     
  42 C42            2.0287    -5.1568    -3.9717 C.3     
  43 C43           -2.2459    -4.6596     3.7496 C.1     
  44 N44           -2.9743    -5.1753     4.4524 N.1     
  45 S45           -1.6500    -4.2195    -1.7529 S.o2    
  46 O46           -2.8315    -4.3878    -0.9816 O.2     
  47 O47           -1.6250    -3.5323    -2.9965 O.2     
  48 O48           -1.1629    -0.6859     0.0203 O.3     
  49 C49           -2.3654     0.0858     0.0414 C.3     
  50 C50           -3.5737    -0.8526     0.0418 C.3     
  51 F51           -3.5487    -1.6456    -1.1105 F       
  52 F52           -3.5265    -1.6733     1.1738 F       
  53 H53            3.3492    -0.4988    -0.0196 H       
  54 H54            3.2494     1.9854     0.0114 H       
  55 H55            1.0595     3.1043     0.0447 H       
  56 H56            2.9007    -3.2820     0.7063 H       
  57 H57            5.9367    -3.4178    -2.5338 H       
  58 H58            5.1645    -1.8314    -2.7940 H       
  59 H59            7.6413    -1.6749    -2.3172 H       
  60 H60            6.6364    -0.7902    -1.1435 H       
  61 H61            7.0105    -3.2347     1.5136 H       
  62 H62            6.2759    -1.6817     1.0460 H       
  63 H63            4.5349    -3.3884     1.0491 H       
  64 H64            5.5183    -4.4442     0.0009 H       
  65 H65            8.6500    -0.9848     0.2726 H       
  66 H66            8.5699    -2.6942     2.0494 H       
  67 H67            9.3488    -3.8751     0.9679 H       
  68 H68           10.5621    -1.2338     1.9014 H       
  69 H69           11.0113    -2.8521     2.4904 H       
  70 H70           11.0607    -0.6030    -0.3726 H       
  71 H71           11.8761    -1.7580    -1.4536 H       
  72 H72            9.8728    -3.2121    -1.4220 H       
  73 H73            9.4544    -1.5753    -1.9845 H       
  74 H74           13.2721    -2.7080     1.7308 H       
  75 H75           13.6196    -2.1819     0.0663 H       
  76 H76           12.9568    -1.0248     1.2453 H       
  77 H77            1.4406    -2.0604     2.9140 H       
  78 H78           -2.3136    -4.6977     1.0831 H       
  79 H79           -2.6227    -6.8173    -1.0390 H       
  80 H80           -1.7455    -9.0768    -1.4655 H       
  81 H81            1.5612    -7.4049    -3.5761 H       
  82 H82            2.7364    -5.6874    -3.3347 H       
  83 H83            1.8069    -5.7618    -4.8508 H       
  84 H84            2.4626    -4.2070    -4.2842 H       
  85 H85           -2.3849     0.7037     0.9392 H       
  86 H86           -2.4022     0.7252    -0.8406 H       
  87 H87           -4.4910    -0.2640     0.0578 H       
@<TRIPOS>BOND
   1    1   31 1
   2    2    3 ar
   3    2    7 ar
   4    3    4 ar
   5    3   48 1
   6    4    5 ar
   7    4    8 1
   8    5    6 ar
   9    5   53 1
  10    6    7 ar
  11    6   54 1
  12    7   55 1
  13    8    9 1
  14    8   10 1
  15    8   28 1
  16    9   26 2
  17    9   27 am
  18   10   11 am
  19   10   56 1
  20   11   12 am
  21   11   13 2
  22   12   14 1
  23   12   18 1
  24   14   15 1
  25   14   57 1
  26   14   58 1
  27   15   16 1
  28   15   59 1
  29   15   60 1
  30   16   17 1
  31   16   19 1
  32   17   18 1
  33   17   61 1
  34   17   62 1
  35   18   63 1
  36   18   64 1
  37   19   20 1
  38   19   24 1
  39   19   65 1
  40   20   21 1
  41   20   66 1
  42   20   67 1
  43   21   22 1
  44   21   68 1
  45   21   69 1
  46   22   23 1
  47   22   25 1
  48   23   24 1
  49   23   70 1
  50   23   71 1
  51   24   72 1
  52   24   73 1
  53   25   74 1
  54   25   75 1
  55   25   76 1
  56   27   45 am
  57   27   29 1
  58   28   29 ar
  59   28   30 ar
  60   29   33 ar
  61   30   31 ar
  62   30   77 1
  63   31   32 ar
  64   32   33 ar
  65   32   43 1
  66   33   78 1
  67   34   35 ar
  68   34   36 ar
  69   34   45 1
  70   35   41 1
  71   35   39 ar
  72   36   37 ar
  73   36   79 1
  74   37   38 ar
  75   37   80 1
  76   38   39 ar
  77   38   40 1
  78   39   81 1
  79   41   42 1
  80   42   82 1
  81   42   83 1
  82   42   84 1
  83   43   44 3
  84   45   46 2
  85   45   47 2
  86   48   49 1
  87   49   50 1
  88   49   85 1
  89   49   86 1
  90   50   51 1
  91   50   52 1
  92   50   87 1

#	End of record

