#	Name: ASD01350009
#	Creating user name:	WinNT
#	Creation time:	15. 06. 2019 19:16

#	Modifying user name:	WinNT
#	Modification time:	15. 06. 2019 19:16

#	Program:	/corina/corina34_cracker 3.40 0067  02.08.2006

@<TRIPOS>MOLECULE
ASD01350009
  51   54    0    0    0
SMALL
NO_CHARGES


@<TRIPOS>ATOM
   1 C1            -0.0324     1.3680    -0.0281 C.ar    
   2 C2            -0.0201    -0.0307     0.0006 C.ar    
   3 N3            -1.2181    -0.7542     0.1216 N.pl3   
   4 C4            -2.0126    -0.5432     1.2496 C.ar    
   5 C5            -2.5146     0.7342     1.5254 C.ar    
   6 C6            -2.2812     1.8453     0.5904 C.2     
   7 N7            -1.1967     2.0735    -0.0618 N.2     
   8 C8             1.1810     2.0592    -0.0809 C.ar    
   9 C9             2.3746     1.3647    -0.1339 C.ar    
  10 C10            2.3767    -0.0184    -0.1353 C.ar    
  11 C11            1.1816    -0.7146    -0.0681 C.ar    
  12 C12           -2.2994    -1.5976     2.1030 C.ar    
  13 C13           -3.0555    -1.3811     3.2403 C.ar    
  14 C14           -3.5266    -0.1135     3.5341 C.ar    
  15 C15           -3.2610     0.9428     2.6864 C.ar    
  16 N16           -3.3222     2.7241     0.3950 N.pl3   
  17 C17           -3.1379     3.9481    -0.3993 C.3     
  18 C18           -4.2469     4.0152    -1.4547 C.3     
  19 N19           -5.5539     3.8936    -0.7953 N.3     
  20 C20           -5.6981     2.5896    -0.1345 C.3     
  21 C21           -4.6502     2.4610     0.9699 C.3     
  22 C22           -6.6478     4.1248    -1.7482 C.3     
  23 Cl23           3.8772     2.2317    -0.1997 Cl      
  24 C24           -7.9800     3.7487    -1.0964 C.3     
  25 C25           -9.1193     3.9894    -2.0888 C.3     
  26 C26          -10.4514     3.6134    -1.4370 C.3     
  27 H27           -1.4873    -1.3859    -0.5635 H       
  28 H28            1.1860     3.1392    -0.0806 H       
  29 H29            3.3118    -0.5562    -0.1888 H       
  30 H30            1.1869    -1.7946    -0.0697 H       
  31 H31           -1.9324    -2.5884     1.8793 H       
  32 H32           -3.2797    -2.2048     3.9019 H       
  33 H33           -4.1051     0.0500     4.4313 H       
  34 H34           -3.6303     1.9301     2.9212 H       
  35 H35           -3.1990     4.8200     0.2520 H       
  36 H36           -2.1655     3.9225    -0.8911 H       
  37 H37           -4.1918     4.9687    -1.9801 H       
  38 H38           -4.1213     3.1994    -2.1666 H       
  39 H39           -6.6956     2.5091     0.2976 H       
  40 H40           -5.5524     1.7937    -0.8648 H       
  41 H41           -4.6780     1.4538     1.3855 H       
  42 H42           -4.8539     3.1897     1.7545 H       
  43 H43           -6.6663     5.1771    -2.0318 H       
  44 H44           -6.4919     3.5119    -2.6360 H       
  45 H45           -7.9614     2.6964    -0.8128 H       
  46 H46           -8.1359     4.3616    -0.2086 H       
  47 H47           -9.1378     5.0417    -2.3724 H       
  48 H48           -8.9633     3.3766    -2.9766 H       
  49 H49          -11.2631     3.7849    -2.1441 H       
  50 H50          -10.4329     2.5611    -1.1534 H       
  51 H51          -10.6073     4.2263    -0.5492 H       
@<TRIPOS>BOND
   1    1    2 ar
   2    1    8 ar
   3    1    7 1
   4    2    3 1
   5    2   11 ar
   6    3    4 1
   7    3   27 1
   8    4    5 ar
   9    4   12 ar
  10    5    6 1
  11    5   15 ar
  12    6    7 2
  13    6   16 1
  14    8    9 ar
  15    8   28 1
  16    9   10 ar
  17    9   23 1
  18   10   11 ar
  19   10   29 1
  20   11   30 1
  21   12   13 ar
  22   12   31 1
  23   13   14 ar
  24   13   32 1
  25   14   15 ar
  26   14   33 1
  27   15   34 1
  28   16   17 1
  29   16   21 1
  30   17   18 1
  31   17   35 1
  32   17   36 1
  33   18   19 1
  34   18   37 1
  35   18   38 1
  36   19   20 1
  37   19   22 1
  38   20   21 1
  39   20   39 1
  40   20   40 1
  41   21   41 1
  42   21   42 1
  43   22   24 1
  44   22   43 1
  45   22   44 1
  46   24   25 1
  47   24   45 1
  48   24   46 1
  49   25   26 1
  50   25   47 1
  51   25   48 1
  52   26   49 1
  53   26   50 1
  54   26   51 1

#	End of record

