#	Name: ASD06170077
#	Creating user name:	WinNT
#	Creation time:	15. 06. 2019 21:05

#	Modifying user name:	WinNT
#	Modification time:	15. 06. 2019 21:05

#	Program:	/corina/corina34_cracker 3.40 0067  02.08.2006

@<TRIPOS>MOLECULE
ASD06170077
  73   77    0    0    0
SMALL
NO_CHARGES


@<TRIPOS>ATOM
   1 N1             0.1525     1.1517    -1.0317 N.pl3   
   2 N2            -0.0197    -0.1395    -0.5241 N.am    
   3 C3             1.1808    -0.6075    -0.1238 C.2     
   4 C4             2.1578     0.4578    -0.3996 C.2     
   5 C5             1.4498     1.5050    -0.9564 C.2     
   6 C6             3.6008     0.4160    -0.1346 C.2     
   7 O7             4.2984     1.3734    -0.4128 O.2     
   8 N8             4.1531    -0.6827     0.4170 N.am    
   9 C9            -1.2333    -0.8302    -0.4442 C.ar    
  10 C10           -2.0865    -0.8671    -1.5395 C.ar    
  11 C11           -3.2841    -1.5500    -1.4573 C.ar    
  12 C12           -3.6341    -2.1966    -0.2861 C.ar    
  13 C13           -2.7869    -2.1618     0.8062 C.ar    
  14 C14           -1.5852    -1.4855     0.7287 C.ar    
  15 O15            1.4103    -1.6962     0.3688 O.2     
  16 C16            2.0312     2.8210    -1.4048 C.3     
  17 C17           -0.9184     1.9932    -1.5712 C.3     
  18 C18           -1.4155     2.9464    -0.4826 C.3     
  19 C19           -2.6155     3.7378    -1.0067 C.3     
  20 C20           -1.8345     2.1405     0.7486 C.3     
  21 O21           -0.3677     3.8504    -0.1262 O.3     
  22 C22            5.5388    -0.7771     0.5455 C.ar    
  23 C23            6.3106     0.3795     0.5366 C.ar    
  24 C24            7.6837     0.2744     0.6647 C.ar    
  25 C25            8.2425    -0.9944     0.7985 C.ar    
  26 C26            7.4109    -2.1027     0.7989 C.ar    
  27 N27            6.1040    -1.9660     0.6800 N.ar    
  28 O28            9.5878    -1.1436     0.9266 O.3     
  29 N29           11.2567    -0.3757     4.6194 N.ar    
  30 C30            9.9752    -0.1756     4.4197 C.ar    
  31 C31            9.3780    -0.4227     3.1901 C.ar    
  32 C32           10.1436    -0.8931     2.1378 C.ar    
  33 C33           11.5222    -1.1049     2.3642 C.ar    
  34 C34           12.3623    -1.5798     1.3460 C.ar    
  35 C35           13.6896    -1.7723     1.6002 C.ar    
  36 C36           14.2214    -1.5002     2.8687 C.ar    
  37 C37           13.4261    -1.0378     3.8773 C.ar    
  38 C38           12.0563    -0.8292     3.6465 C.ar    
  39 O39           15.5459    -1.6998     3.0973 O.3     
  40 C40           16.0295    -1.4049     4.4092 C.3     
  41 O41           14.5040    -2.2330     0.6135 O.3     
  42 C42           13.9022    -2.4919    -0.6565 C.3     
  43 H43            3.5870    -1.4078     0.7246 H       
  44 H44           -1.8139    -0.3621    -2.4544 H       
  45 H45           -3.9482    -1.5788    -2.3085 H       
  46 H46           -4.5714    -2.7296    -0.2243 H       
  47 H47           -3.0632    -2.6678     1.7195 H       
  48 H48           -0.9218    -1.4627     1.5806 H       
  49 H49            2.0108     3.5285    -0.5758 H       
  50 H50            3.0609     2.6715    -1.7295 H       
  51 H51            1.4425     3.2150    -2.2332 H       
  52 H52           -0.5374     2.5706    -2.4135 H       
  53 H53           -1.7422     1.3627    -1.9060 H       
  54 H54           -3.4147     3.0483    -1.2786 H       
  55 H55           -2.9696     4.4169    -0.2312 H       
  56 H56           -2.3170     4.3120    -1.8838 H       
  57 H57           -0.9796     1.5767     1.1220 H       
  58 H58           -2.1886     2.8196     1.5241 H       
  59 H59           -2.6338     1.4510     0.4767 H       
  60 H60           -0.0517     4.3952    -0.8600 H       
  61 H61            5.8437     1.3476     0.4306 H       
  62 H62            8.3081     1.1556     0.6608 H       
  63 H63            7.8371    -3.0897     0.9019 H       
  64 H64            9.3679     0.1910     5.2341 H       
  65 H65            8.3205    -0.2488     3.0561 H       
  66 H66           11.9610    -1.7923     0.3661 H       
  67 H67           13.8488    -0.8330     4.8498 H       
  68 H68           15.8483    -0.3542     4.6356 H       
  69 H69           15.5096    -2.0282     5.1367 H       
  70 H70           17.0995    -1.6074     4.4561 H       
  71 H71           13.1241    -3.2467    -0.5427 H       
  72 H72           13.4629    -1.5729    -1.0445 H       
  73 H73           14.6605    -2.8536    -1.3509 H       
@<TRIPOS>BOND
   1    1    2 1
   2    1    5 1
   3    1   17 1
   4    2    3 am
   5    2    9 1
   6    3    4 1
   7    3   15 2
   8    4    5 2
   9    4    6 1
  10    5   16 1
  11    6    7 2
  12    6    8 am
  13    8   22 1
  14    8   43 1
  15    9   10 ar
  16    9   14 ar
  17   10   11 ar
  18   10   44 1
  19   11   12 ar
  20   11   45 1
  21   12   13 ar
  22   12   46 1
  23   13   14 ar
  24   13   47 1
  25   14   48 1
  26   16   49 1
  27   16   50 1
  28   16   51 1
  29   17   18 1
  30   17   52 1
  31   17   53 1
  32   18   19 1
  33   18   20 1
  34   18   21 1
  35   19   54 1
  36   19   55 1
  37   19   56 1
  38   20   57 1
  39   20   58 1
  40   20   59 1
  41   21   60 1
  42   22   23 ar
  43   22   27 ar
  44   23   24 ar
  45   23   61 1
  46   24   25 ar
  47   24   62 1
  48   25   26 ar
  49   25   28 1
  50   26   27 ar
  51   26   63 1
  52   28   32 1
  53   29   30 ar
  54   29   38 ar
  55   30   31 ar
  56   30   64 1
  57   31   32 ar
  58   31   65 1
  59   32   33 ar
  60   33   34 ar
  61   33   38 ar
  62   34   35 ar
  63   34   66 1
  64   35   36 ar
  65   35   41 1
  66   36   37 ar
  67   36   39 1
  68   37   38 ar
  69   37   67 1
  70   39   40 1
  71   40   68 1
  72   40   69 1
  73   40   70 1
  74   41   42 1
  75   42   71 1
  76   42   72 1
  77   42   73 1

#	End of record

