#	Name: ASD01885829
#	Creating user name:	WinNT
#	Creation time:	15. 06. 2019 19:50

#	Modifying user name:	WinNT
#	Modification time:	15. 06. 2019 19:50

#	Program:	/corina/corina34_cracker 3.40 0067  02.08.2006

@<TRIPOS>MOLECULE
ASD01885829
  53   57    0    0    0
SMALL
NO_CHARGES


@<TRIPOS>ATOM
   1 C1            -0.0160     1.3294     0.0094 C.ar    
   2 C2            -1.2520     2.0240     0.0189 C.ar    
   3 C3            -2.4596     1.2809     0.0205 C.ar    
   4 C4            -2.3700    -0.1047     0.0125 C.ar    
   5 C5            -1.1108    -0.7138     0.0033 C.ar    
   6 N6             0.0021    -0.0041     0.0020 N.ar    
   7 C7             1.1364     3.4285     0.0097 C.ar    
   8 C8            -0.0805     4.1065     0.0258 C.ar    
   9 C9            -1.2606     3.4246     0.0271 C.ar    
  10 C10           -3.7749     1.9611     0.0308 C.2     
  11 C11           -1.0240    -2.1941    -0.0047 C.2     
  12 C12            2.4227     4.2136     0.0097 C.3     
  13 N13            2.8503     4.4530     1.3945 N.3     
  14 C14            1.1821     2.0685     0.0019 C.ar    
  15 N15            0.1806    -2.7985    -0.0130 N.am    
  16 O16           -2.0389    -2.8621    -0.0037 O.2     
  17 C17            4.2105     5.0037     1.4375 C.3     
  18 C18            4.5344     5.4528     2.8665 C.3     
  19 C19            4.3258     4.2651     3.8119 C.3     
  20 C20            2.9684     3.5678     3.6759 C.3     
  21 C21            2.7371     3.2302     2.1990 C.3     
  22 C22           -4.1757     2.9887     0.9094 C.2     
  23 N23           -5.3995     3.3279     0.6043 N.2     
  24 N24           -5.8265     2.5392    -0.4706 N.pl3   
  25 C25           -4.8207     1.7119    -0.8135 C.2     
  26 C26           -7.1405     2.6056    -1.1149 C.3     
  27 C27            5.5399     3.4011     4.1483 C.3     
  28 C28            4.9522     4.3421     5.2027 C.3     
  29 H29           -3.2660    -0.7077     0.0137 H       
  30 H30           -0.0889     5.1864     0.0378 H       
  31 H31           -2.1976     3.9616     0.0341 H       
  32 H32            3.1929     3.6491    -0.5159 H       
  33 H33            2.2657     5.1683    -0.4923 H       
  34 H34            2.1338     1.5582    -0.0097 H       
  35 H35            0.9908    -2.2651    -0.0139 H       
  36 H36            0.2373    -3.7668    -0.0182 H       
  37 H37            4.9222     4.2389     1.1268 H       
  38 H38            4.2781     5.8581     0.7640 H       
  39 H39            5.5713     5.7848     2.9194 H       
  40 H40            3.8712     6.2691     3.1526 H       
  41 H41            2.9675     2.6508     4.2653 H       
  42 H42            2.1790     4.2322     4.0273 H       
  43 H43            1.7413     2.8046     2.0751 H       
  44 H44            3.4845     2.5082     1.8699 H       
  45 H45           -3.5757     3.4197     1.6972 H       
  46 H46           -4.8393     0.9798    -1.6073 H       
  47 H47           -7.1080     3.3249    -1.9332 H       
  48 H48           -7.4038     1.6226    -1.5054 H       
  49 H49           -7.8875     2.9188    -0.3854 H       
  50 H50            5.3757     2.3316     4.2804 H       
  51 H51            6.4947     3.6788     3.7019 H       
  52 H52            5.5205     5.2388     5.4499 H       
  53 H53            4.4014     3.8916     6.0284 H       
@<TRIPOS>BOND
   1    1    6 ar
   2    1   14 ar
   3    1    2 ar
   4    2    3 ar
   5    2    9 ar
   6    3   10 1
   7    3    4 ar
   8    4    5 ar
   9    4   29 1
  10    5   11 1
  11    5    6 ar
  12    7   12 1
  13    7    8 ar
  14    7   14 ar
  15    8    9 ar
  16    8   30 1
  17    9   31 1
  18   10   22 1
  19   10   25 2
  20   11   15 am
  21   11   16 2
  22   12   13 1
  23   12   32 1
  24   12   33 1
  25   13   17 1
  26   13   21 1
  27   14   34 1
  28   15   35 1
  29   15   36 1
  30   17   18 1
  31   17   37 1
  32   17   38 1
  33   18   19 1
  34   18   39 1
  35   18   40 1
  36   19   20 1
  37   19   27 1
  38   19   28 1
  39   20   21 1
  40   20   41 1
  41   20   42 1
  42   21   43 1
  43   21   44 1
  44   22   23 2
  45   22   45 1
  46   23   24 1
  47   24   25 1
  48   24   26 1
  49   25   46 1
  50   26   47 1
  51   26   48 1
  52   26   49 1
  53   27   28 1
  54   27   50 1
  55   27   51 1
  56   28   52 1
  57   28   53 1

#	End of record

