#	Name: ASD02038039
#	Creating user name:	WinNT
#	Creation time:	15. 06. 2019 20:16

#	Modifying user name:	WinNT
#	Modification time:	15. 06. 2019 20:16

#	Program:	/corina/corina34_cracker 3.40 0067  02.08.2006

@<TRIPOS>MOLECULE
ASD02038039
  42   44    0    0    0
SMALL
NO_CHARGES


@<TRIPOS>ATOM
   1 O1            -0.0176     1.4478     0.0100 O.3     
   2 N2             1.2258     3.4220     0.0087 N.am    
   3 C3             1.1736     2.0753     0.0020 C.2     
   4 C4             1.3564     6.8335    -0.1737 C.3     
   5 O5             0.4821     7.6507    -0.9547 O.3     
   6 C6             0.4174     8.9699    -0.6314 C.ar    
   7 C7            -0.4112     9.8199    -1.3488 C.ar    
   8 C8             1.1758     9.4645     0.4193 C.ar    
   9 C9             1.1101    10.8046     0.7476 C.ar    
  10 C10            0.2861    11.6557     0.0264 C.ar    
  11 C11           -0.4769    11.1600    -1.0205 C.ar    
  12 O12            2.2015     1.4274    -0.0113 O.2     
  13 O13            0.2207    12.9748     0.3502 O.3     
  14 C14            0.0021    -0.0041     0.0020 C.3     
  15 C15           -1.4117    -0.5257     0.0127 C.ar    
  16 C16           -2.0714    -0.7584    -1.1797 C.ar    
  17 C17           -2.0465    -0.7766     1.2149 C.ar    
  18 C18           -3.3430    -1.2555     1.2253 C.ar    
  19 C19           -4.0057    -1.4832     0.0324 C.ar    
  20 C20           -3.3680    -1.2368    -1.1705 C.ar    
  21 Cl21          -5.6339    -2.0851     0.0447 Cl      
  22 C22            2.2866     4.4406     0.0041 C.3     
  23 C23            1.2958     5.3915    -0.6816 C.3     
  24 C24            0.2471     4.5197     0.0174 C.3     
  25 H25            2.3768     7.2067    -0.2607 H       
  26 H26            1.0461     6.8643     0.8707 H       
  27 H27           -1.0049     9.4340    -2.1643 H       
  28 H28            1.8175     8.8017     0.9809 H       
  29 H29            1.7001    11.1896     1.5662 H       
  30 H30           -1.1183    11.8228    -1.5823 H       
  31 H31            0.8655    13.5262    -0.1140 H       
  32 H32            0.5123    -0.3556    -0.8948 H       
  33 H33            0.5293    -0.3651     0.8851 H       
  34 H34           -1.5735    -0.5660    -2.1186 H       
  35 H35           -1.5291    -0.5988     2.1460 H       
  36 H36           -3.8386    -1.4521     2.1645 H       
  37 H37           -3.8849    -1.4140    -2.1021 H       
  38 H38            2.5806     4.7658     1.0021 H       
  39 H39            3.1390     4.1768    -0.6220 H       
  40 H40            1.2827     5.3154    -1.7688 H       
  41 H41           -0.6329     4.3241    -0.5953 H       
  42 H42           -0.0049     4.8640     1.0204 H       
@<TRIPOS>BOND
   1    1   14 1
   2    1    3 1
   3    2    3 am
   4    2   22 1
   5    2   24 1
   6    3   12 2
   7    4    5 1
   8    4   23 1
   9    4   25 1
  10    4   26 1
  11    5    6 1
  12    6    7 ar
  13    6    8 ar
  14    7   11 ar
  15    7   27 1
  16    8    9 ar
  17    8   28 1
  18    9   10 ar
  19    9   29 1
  20   10   11 ar
  21   10   13 1
  22   11   30 1
  23   13   31 1
  24   14   15 1
  25   14   32 1
  26   14   33 1
  27   15   16 ar
  28   15   17 ar
  29   16   20 ar
  30   16   34 1
  31   17   18 ar
  32   17   35 1
  33   18   19 ar
  34   18   36 1
  35   19   20 ar
  36   19   21 1
  37   20   37 1
  38   22   23 1
  39   22   38 1
  40   22   39 1
  41   23   24 1
  42   23   40 1
  43   24   41 1
  44   24   42 1

#	End of record

