#	Name: ASD06610084
#	Creating user name:	WinNT
#	Creation time:	15. 06. 2019 21:07

#	Modifying user name:	WinNT
#	Modification time:	15. 06. 2019 21:07

#	Program:	/corina/corina34_cracker 3.40 0067  02.08.2006

@<TRIPOS>MOLECULE
ASD06610084
 410  411    0    0    0
SMALL
NO_CHARGES


@<TRIPOS>ATOM
   1 C1            -3.6611    -4.9651     5.6122 C.2     
   2 O2            -3.8036    -6.1683     5.6661 O.2     
   3 N3            -1.2829    -5.4442     5.6727 N.am    
   4 C4            -2.2767    -4.3698     5.6066 C.3     
   5 C5            -2.0728    -3.5650     4.3215 C.3     
   6 O6            -2.3398    -4.3971     3.1908 O.3     
   7 C7            -7.1087    -3.6348     5.4774 C.2     
   8 O8            -6.7485    -2.4776     5.4302 O.2     
   9 N9            -4.7408    -4.1607     5.5516 N.am    
  10 C10           -6.0865    -4.7397     5.5510 C.3     
  11 C11          -10.7158    -3.3353     5.9894 C.2     
  12 O12          -10.8030    -4.4615     6.4309 O.2     
  13 N13           -8.4231    -3.9325     5.4641 N.am    
  14 C14           -9.4168    -2.8584     5.3926 C.3     
  15 C15           -9.6405    -2.4671     3.9305 C.3     
  16 C16           -8.3731    -1.8757     3.3692 C.2     
  17 C17           -7.7254    -2.2948     2.2653 C.2     
  18 N18           -6.6312    -1.4859     2.1171 N.pl3   
  19 C19           -6.6482    -0.6001     3.1363 C.2     
  20 N20           -7.6956    -0.8361     3.8783 N.2     
  21 C21          -14.1856    -2.1853     6.0253 C.2     
  22 O22          -13.9662    -1.3211     5.2031 O.2     
  23 N23          -11.7807    -2.5103     6.0324 N.am    
  24 C24          -13.0435    -2.9739     6.6125 C.3     
  25 C25          -13.0120    -2.7736     8.1290 C.3     
  26 C26          -11.9491    -3.6566     8.7304 C.ar    
  27 C27          -10.6579    -3.1843     8.8736 C.ar    
  28 C28           -9.6829    -3.9942     9.4252 C.ar    
  29 C29           -9.9992    -5.2763     9.8339 C.ar    
  30 C30          -11.2907    -5.7483     9.6915 C.ar    
  31 C31          -12.2667    -4.9368     9.1439 C.ar    
  32 C32          -17.7205    -1.6763     6.8054 C.2     
  33 O33          -17.6285    -2.2609     7.8640 O.2     
  34 N34          -15.4507    -2.4404     6.4137 N.am    
  35 C35          -16.5609    -1.6738     5.8428 C.3     
  36 C36          -16.9940    -2.3108     4.5209 C.3     
  37 C37          -15.8575    -2.1963     3.5031 C.3     
  38 C38          -16.2906    -2.8333     2.1811 C.3     
  39 N39          -15.2023    -2.7237     1.2065 N.pl3   
  40 C40          -15.3619    -3.2296    -0.0618 C.2     
  41 N41          -14.3936    -3.1320    -0.9290 N.2     
  42 N42          -16.5427    -3.8383    -0.4156 N.pl3   
  43 C43          -21.2706    -0.8159     6.6661 C.2     
  44 O44          -21.2463    -0.6743     5.4618 O.2     
  45 N45          -18.8596    -1.0289     6.4898 N.am    
  46 C46          -19.9869    -1.0313     7.4255 C.3     
  47 C47          -19.8040     0.0927     8.4472 C.3     
  48 C48          -18.5675    -0.1915     9.3023 C.3     
  49 C49          -18.3846     0.9325    10.3241 C.3     
  50 C50          -17.1481     0.6483    11.1792 C.3     
  51 N51          -16.9726     1.7275    12.1602 N.3     
  52 C52          -24.7270     0.0266     7.5065 C.2     
  53 O53          -24.4485     0.2553     8.6645 O.2     
  54 N54          -22.4457    -0.7807     7.3252 N.am    
  55 C55          -23.6936    -0.5713     6.5869 C.3     
  56 C56          -24.2012    -1.9120     6.0525 C.3     
  57 C57          -23.2095    -2.4595     5.0241 C.3     
  58 C58          -23.7094    -3.7802     4.4977 C.2     
  59 O59          -24.7519    -4.2366     4.9035 O.2     
  60 O60          -22.9965    -4.4494     3.5781 O.3     
  61 C61          -28.3439     0.5512     7.4293 C.2     
  62 O62          -28.4744    -0.1096     6.4207 O.2     
  63 N63          -25.9607     0.3072     7.0420 N.am    
  64 C64          -26.9653     0.8885     7.9360 C.3     
  65 C65          -26.7942     2.4084     7.9758 C.3     
  66 C66          -25.4435     2.7532     8.6062 C.3     
  67 C67          -25.2724     4.2731     8.6460 C.3     
  68 N68          -23.9790     4.6033     9.2496 N.pl3   
  69 C69          -23.6026     5.9179     9.3923 C.2     
  70 N70          -24.3964     6.8704     8.9905 N.2     
  71 N71          -22.3888     6.2278     9.9587 N.pl3   
  72 C72          -31.6650     1.9110     7.8905 C.2     
  73 O73          -31.2358     2.8329     8.5515 O.2     
  74 N74          -29.4318     0.9840     8.0969 N.am    
  75 C75          -30.7696     0.7481     7.5485 C.3     
  76 C76          -31.3481    -0.5348     8.1490 C.3     
  77 C77          -31.2353    -0.4801     9.6738 C.3     
  78 C78          -32.1647     0.6081    10.2152 C.3     
  79 C79          -30.5678    -1.7411     7.6229 C.3     
  80 C80          -35.2669     2.5299     7.8128 C.2     
  81 O81          -35.5109     1.3947     7.4626 O.2     
  82 N82          -32.9427     1.9266     7.4619 N.am    
  83 C83          -33.8396     3.0100     7.8719 C.3     
  84 C84          -33.6631     4.2024     6.9297 C.3     
  85 C85          -32.2496     4.7678     7.0819 C.3     
  86 C86          -32.0757     5.9423     6.1538 C.2     
  87 O87          -32.9887     6.2913     5.4435 O.2     
  88 O88          -30.9066     6.6007     6.1162 O.3     
  89 C89          -38.5824     4.0099     8.5132 C.2     
  90 O90          -38.1260     5.0878     8.8306 O.2     
  91 N91          -36.2723     3.3622     8.1490 N.am    
  92 C92          -37.6598     2.8956     8.0914 C.3     
  93 C93          -42.0959     4.3077     9.4775 C.2     
  94 O94          -42.2470     3.1048     9.5094 O.2     
  95 N95          -39.9149     3.8088     8.5377 N.am    
  96 C96          -40.8118     4.8921     8.9477 C.3     
  97 C97          -41.1166     5.7852     7.7434 C.3     
  98 C98          -39.8316     6.4762     7.2827 C.3     
  99 C99          -40.1096     7.2706     6.0050 C.3     
 100 C100         -39.3426     7.4262     8.3777 C.3     
 101 C101         -45.4358     5.5603    10.2771 C.2     
 102 O102         -45.2074     6.6454     9.7857 O.2     
 103 N103         -43.0765     5.1219     9.9158 N.am    
 104 C104         -44.3248     4.5538    10.4308 C.3     
 105 C105         -44.1539     4.2048    11.9106 C.3     
 106 C106         -43.1131     3.0928    12.0555 C.3     
 107 C107         -42.9423     2.7438    13.5353 C.3     
 108 N108         -41.9456     1.6790    13.6740 N.pl3   
 109 C109         -41.6233     1.1973    14.9207 C.2     
 110 N110         -40.7366     0.2499    15.0441 N.2     
 111 N111         -42.2363     1.7147    16.0372 N.pl3   
 112 C112         -48.8374     5.9554    11.5561 C.2     
 113 O113         -48.7130     5.0311    12.3314 O.2     
 114 N114         -46.6832     5.2547    10.6856 N.am    
 115 C115         -47.7633     6.2332    10.5362 C.3     
 116 C116         -48.3560     6.1277     9.1296 C.3     
 117 C117         -47.2992     6.5309     8.0993 C.3     
 118 C118         -47.8919     6.4254     6.6927 C.3     
 119 C119         -46.8351     6.8285     5.6624 C.3     
 120 N120         -47.4042     6.7273     4.3119 N.3     
 121 C121         -52.2969     7.0036    12.1008 C.2     
 122 O122         -52.3569     7.5590    11.0243 O.2     
 123 N123         -49.9363     6.7341    11.6066 N.am    
 124 C124         -50.9805     6.4641    12.5980 C.3     
 125 C125         -50.6171     7.1441    13.9196 C.3     
 126 C126         -49.3461     6.5092    14.4872 C.3     
 127 C127         -48.9827     7.1892    15.8087 C.3     
 128 N128         -47.7656     6.5812    16.3523 N.pl3   
 129 C129         -47.2443     7.0319    17.5419 C.2     
 130 N130         -46.1615     6.4910    18.0255 N.2     
 131 N131         -47.8651     8.0532    18.2215 N.pl3   
 132 C132         -55.5861     7.6847    13.5430 C.2     
 133 O133         -55.1963     7.4750    14.6721 O.2     
 134 N134         -53.4074     6.8689    12.8525 N.am    
 135 C135         -54.6871     7.3934    12.3691 C.3     
 136 C136         -55.3529     6.3570    11.4617 C.3     
 137 C137         -54.4996     6.1534    10.2082 C.3     
 138 C138         -55.1654     5.1170     9.3007 C.3     
 139 N139         -54.3483     4.9221     8.1005 N.pl3   
 140 C140         -54.7492     4.0312     7.1332 C.2     
 141 N141         -54.0222     3.8577     6.0653 N.2     
 142 N142         -55.9170     3.3233     7.2922 N.pl3   
 143 C143         -59.1367     8.4010    14.0367 C.2     
 144 O144         -59.4059     8.1463    12.8819 O.2     
 145 N145         -56.8234     8.1784    13.3380 N.am    
 146 C146         -57.6973     8.4617    14.4791 C.3     
 147 C147         -57.3894     9.8581    15.0231 C.3     
 148 C148         -55.9671     9.8838    15.5864 C.3     
 149 C149         -55.6592    11.2803    16.1304 C.3     
 150 N150         -54.2973    11.3049    16.6697 N.pl3   
 151 C151         -53.7954    12.4621    17.2168 C.2     
 152 N152         -52.5837    12.4840    17.6967 N.2     
 153 N153         -54.5716    13.5961    17.2578 N.pl3   
 154 C154         -62.3402     9.4576    15.4678 C.2     
 155 O155         -61.8986     9.6847    16.5743 O.2     
 156 N156         -60.1247     8.6299    14.9243 N.am    
 157 C157         -61.5176     8.6797    14.4732 C.3     
 158 C158         -62.0677     7.2566    14.3584 C.3     
 159 C159         -63.5258     7.3091    13.8977 C.3     
 160 C160         -63.5883     7.8328    12.4615 C.3     
 161 C161         -64.1297     5.9045    13.9551 C.3     
 162 C162         -65.8450    10.4572    15.7515 C.2     
 163 O163         -66.1635     9.8232    14.7679 O.2     
 164 N164         -63.5667     9.9009    15.1277 N.am    
 165 C165         -64.3896    10.6069    16.1129 C.3     
 166 C166         -64.0160    12.0906    16.1202 C.3     
 167 C167         -62.5745    12.2511    16.6073 C.3     
 168 C168         -62.1593    13.7195    16.4967 C.3     
 169 C169         -62.4763    11.8018    18.0665 C.3     
 170 C170         -68.9890    12.0353    16.7454 C.2     
 171 O171         -68.4224    12.8908    17.3833 O.2     
 172 N172         -66.7927    11.0279    16.5214 N.am    
 173 C173         -68.2074    10.8823    16.1701 C.3     
 174 C174         -68.7423     9.5678    16.7420 C.3     
 175 O175         -70.3147    12.1118    16.5490 O.3     
 176 C176          -0.0566    -5.1979     6.1748 C.2     
 177 O177           0.2242    -4.0868     6.5718 O.2     
 178 C178          17.3064   -10.3691    10.9678 C.3     
 179 C179          16.2685    -9.2470    10.8987 C.3     
 180 C180          14.9720    -9.7882    10.2928 C.3     
 181 C181          13.9341    -8.6662    10.2237 C.3     
 182 C182          12.6376    -9.2073     9.6178 C.3     
 183 C183          11.5997    -8.0853     9.5487 C.3     
 184 C184          10.3032    -8.6265     8.9428 C.3     
 185 C185           9.2653    -7.5045     8.8737 C.3     
 186 C186           7.9688    -8.0456     8.2679 C.3     
 187 C187           6.9309    -6.9236     8.1987 C.3     
 188 C188           5.6344    -7.4647     7.5929 C.3     
 189 C189           4.5966    -6.3427     7.5237 C.3     
 190 C190           3.3000    -6.8839     6.9179 C.3     
 191 C191           2.2622    -5.7619     6.8488 C.3     
 192 C192           0.9657    -6.3030     6.2429 C.3     
 193 H193          -1.5075    -6.3328     5.3552 H       
 194 H194          -2.1600    -3.7133     6.4688 H       
 195 H195          -2.7529    -2.7132     4.3144 H       
 196 H196          -1.0437    -3.2086     4.2753 H       
 197 H197          -2.2301    -3.9514     2.3397 H       
 198 H198          -4.6268    -3.1984     5.5085 H       
 199 H199          -6.2360    -5.3126     6.4662 H       
 200 H200          -6.1990    -5.3967     4.6886 H       
 201 H201          -8.7111    -4.8580     5.5019 H       
 202 H202          -9.0572    -1.9931     5.9494 H       
 203 H203          -9.9144    -3.3516     3.3555 H       
 204 H204         -10.4426    -1.7315     3.8699 H       
 205 H205          -8.0138    -3.1122     1.6210 H       
 206 H206          -5.9674    -1.5390     1.4118 H       
 207 H207          -5.9183     0.1774     3.3068 H       
 208 H208         -11.7110    -1.6096     5.6792 H       
 209 H209         -13.1795    -4.0320     6.3885 H       
 210 H210         -12.7877    -1.7308     8.3532 H       
 211 H211         -13.9827    -3.0351     8.5503 H       
 212 H212         -10.4107    -2.1826     8.5543 H       
 213 H213          -8.6739    -3.6255     9.5365 H       
 214 H214          -9.2373    -5.9093    10.2642 H       
 215 H215         -11.5377    -6.7501    10.0106 H       
 216 H216         -13.2765    -5.3043     9.0361 H       
 217 H217         -15.6261    -3.1316     7.0713 H       
 218 H218         -16.2397    -0.6477     5.6636 H       
 219 H219         -17.2307    -3.3621     4.6846 H       
 220 H220         -17.8757    -1.7949     4.1406 H       
 221 H221         -15.6208    -1.1449     3.3394 H       
 222 H222         -14.9758    -2.7122     3.8833 H       
 223 H223         -16.5272    -3.8847     2.3448 H       
 224 H224         -17.1722    -2.3174     1.8008 H       
 225 H225         -14.3692    -2.2942     1.4561 H       
 226 H226         -14.5062    -3.4889    -1.8239 H       
 227 H227         -17.2633    -3.9109     0.2297 H       
 228 H228         -16.6553    -4.1952    -1.3105 H       
 229 H229         -18.9332    -0.5613     5.6431 H       
 230 H230         -20.0274    -1.9898     7.9431 H       
 231 H231         -19.6746     1.0408     7.9252 H       
 232 H232         -20.6840     0.1480     9.0880 H       
 233 H233         -18.6969    -1.1396     9.8244 H       
 234 H234         -17.6875    -0.2468     8.6616 H       
 235 H235         -18.2552     1.8806     9.8020 H       
 236 H236         -19.2647     0.9878    10.9649 H       
 237 H237         -17.2776    -0.2998    11.7013 H       
 238 H238         -16.2681     0.5930    10.5384 H       
 239 H239         -16.1617     1.5629    12.7377 H       
 240 H240         -16.9150     2.6254    11.7035 H       
 241 H241         -22.4651    -0.8939     8.2883 H       
 242 H242         -23.5131     0.1073     5.7532 H       
 243 H243         -24.2971    -2.6188     6.8768 H       
 244 H244         -25.1733    -1.7704     5.5803 H       
 245 H245         -23.1135    -1.7528     4.1999 H       
 246 H246         -22.2374    -2.6012     5.4963 H       
 247 H247         -23.3576    -5.2921     3.2706 H       
 248 H248         -26.1834     0.1243     6.1158 H       
 249 H249         -26.8375     0.4821     8.9393 H       
 250 H250         -26.8336     2.8051     6.9613 H       
 251 H251         -27.5953     2.8487     8.5695 H       
 252 H252         -25.4041     2.3565     9.6207 H       
 253 H253         -24.6424     2.3129     8.0125 H       
 254 H254         -25.3118     4.6699     7.6315 H       
 255 H255         -26.0734     4.7135     9.2397 H       
 256 H256         -23.3882     3.8945     9.5486 H       
 257 H257         -24.1308     7.7979     9.0911 H       
 258 H258         -21.7980     5.5189    10.2578 H       
 259 H259         -22.1232     7.1552    10.0594 H       
 260 H260         -29.3289     1.4516     8.9405 H       
 261 H261         -30.7054     0.6454     6.4652 H       
 262 H262         -32.3963    -0.6282     7.8653 H       
 263 H263         -31.5213    -1.4443    10.0941 H       
 264 H264         -30.2070    -0.2521     9.9542 H       
 265 H265         -31.7745     1.5884     9.9415 H       
 266 H266         -33.1598     0.4811     9.7889 H       
 267 H267         -32.2219     0.5300    11.3009 H       
 268 H268         -29.5429    -1.6998     7.9915 H       
 269 H269         -31.0418    -2.6596     7.9692 H       
 270 H270         -30.5629    -1.7234     6.5330 H       
 271 H271         -33.2684     1.2206     6.8820 H       
 272 H272         -33.6004     3.3137     8.8911 H       
 273 H273         -33.8157     3.8778     5.9004 H       
 274 H274         -34.3918     4.9737     7.1793 H       
 275 H275         -32.0970     5.0923     8.1112 H       
 276 H276         -31.5209     3.9965     6.8323 H       
 277 H277         -30.8427     7.3474     5.5052 H       
 278 H278         -36.0772     4.2702     8.4290 H       
 279 H279         -37.7855     2.0460     8.7627 H       
 280 H280         -37.8990     2.5919     7.0723 H       
 281 H281         -40.2800     2.9467     8.2838 H       
 282 H282         -40.3333     5.4845     9.7275 H       
 283 H283         -41.5133     5.1766     6.9308 H       
 284 H284         -41.8525     6.5379     8.0262 H       
 285 H285         -39.0665     5.7256     7.0845 H       
 286 H286         -40.8748     8.0212     6.2031 H       
 287 H287         -39.1942     7.7628     5.6768 H       
 288 H288         -40.4580     6.5938     5.2249 H       
 289 H289         -39.1445     6.8602     9.2880 H       
 290 H290         -38.4271     7.9185     8.0495 H       
 291 H291         -40.1078     8.1768     8.5758 H       
 292 H292         -42.9557     6.0840     9.8902 H       
 293 H293         -44.5717     3.6518     9.8709 H       
 294 H294         -43.8207     5.0877    12.4560 H       
 295 H295         -45.1070     3.8654    12.3163 H       
 296 H296         -43.4464     2.2099    11.5101 H       
 297 H297         -42.1600     3.4321    11.6498 H       
 298 H298         -42.6090     3.6267    14.0807 H       
 299 H299         -43.8954     2.4044    13.9410 H       
 300 H300         -41.5131     1.3139    12.8863 H       
 301 H301         -40.5093    -0.0900    15.9237 H       
 302 H302         -42.8962     2.4197    15.9454 H       
 303 H303         -42.0090     1.3748    16.9168 H       
 304 H304         -46.8659     4.3869    11.0786 H       
 305 H305         -47.3677     7.2373    10.6894 H       
 306 H306         -48.6711     5.1009     8.9442 H       
 307 H307         -49.2161     6.7922     9.0470 H       
 308 H308         -46.9841     7.5577     8.2848 H       
 309 H309         -46.4391     5.8664     8.1819 H       
 310 H310         -48.2070     5.3986     6.5073 H       
 311 H311         -48.7520     7.0899     6.6101 H       
 312 H312         -46.5200     7.8554     5.8479 H       
 313 H313         -45.9751     6.1640     5.7451 H       
 314 H314         -48.2410     7.2850     4.2294 H       
 315 H315         -46.7252     6.9886     3.6129 H       
 316 H316         -50.0358     7.4734    10.9865 H       
 317 H317         -51.0642     5.3886    12.7538 H       
 318 H318         -50.4464     8.2067    13.7465 H       
 319 H319         -51.4344     7.0183    14.6297 H       
 320 H320         -49.5168     5.4466    14.6602 H       
 321 H321         -48.5287     6.6350    13.7771 H       
 322 H322         -48.8120     8.2517    15.6357 H       
 323 H323         -49.8000     7.0634    16.5189 H       
 324 H324         -47.3276     5.8607    15.8728 H       
 325 H325         -45.7937     6.8090    18.8648 H       
 326 H326         -48.6710     8.4557    17.8616 H       
 327 H327         -47.4973     8.3711    19.0608 H       
 328 H328         -53.3594     6.4247    13.7135 H       
 329 H329         -54.5146     8.3112    11.8070 H       
 330 H330         -55.4448     5.4115    11.9962 H       
 331 H331         -56.3434     6.7092    11.1736 H       
 332 H332         -54.4077     7.0989     9.6736 H       
 333 H333         -53.5091     5.8012    10.4963 H       
 334 H334         -55.2572     4.1715     9.8353 H       
 335 H335         -56.1559     5.4692     9.0127 H       
 336 H336         -53.5243     5.4215     7.9883 H       
 337 H337         -54.3051     3.2292     5.3828 H       
 338 H338         -56.4580     3.4524     8.0869 H       
 339 H339         -56.1999     2.6947     6.6097 H       
 340 H340         -57.1351     8.3462    12.4349 H       
 341 H341         -57.5259     7.7214    15.2606 H       
 342 H342         -57.4748    10.5885    14.2185 H       
 343 H343         -58.0979    10.1044    15.8140 H       
 344 H344         -55.8817     9.1535    16.3910 H       
 345 H345         -55.2586     9.6376    14.7955 H       
 346 H346         -55.7445    12.0107    15.3257 H       
 347 H347         -56.3677    11.5266    16.9212 H       
 348 H348         -53.7497    10.5048    16.6409 H       
 349 H349         -52.2297    13.3004    18.0827 H       
 350 H350         -55.4733    13.5798    16.9006 H       
 351 H351         -54.2175    14.4125    17.6438 H       
 352 H352         -59.9135     8.7616    15.8619 H       
 353 H353         -61.5671     9.1679    13.4999 H       
 354 H354         -61.4775     6.6963    13.6333 H       
 355 H355         -62.0112     6.7658    15.3300 H       
 356 H356         -64.0898     7.9741    14.5518 H       
 357 H357         -64.6299     7.9367    12.1576 H       
 358 H358         -63.0953     8.8035    12.4069 H       
 359 H359         -63.0841     7.1314    11.7967 H       
 360 H360         -64.0851     5.5314    14.9783 H       
 361 H361         -65.1684     5.9419    13.6268 H       
 362 H362         -63.5656     5.2395    13.3010 H       
 363 H363         -63.9046     9.7525    14.2307 H       
 364 H364         -64.2155    10.1835    17.1021 H       
 365 H365         -64.1054    12.4927    15.1110 H       
 366 H366         -64.6873    12.6311    16.7874 H       
 367 H367         -61.9133    11.6393    15.9935 H       
 368 H368         -62.8205    14.3312    17.1105 H       
 369 H369         -61.1324    13.8338    16.8438 H       
 370 H370         -62.2293    14.0396    15.4571 H       
 371 H371         -62.7721    10.7556    18.1453 H       
 372 H372         -61.4493    11.9161    18.4136 H       
 373 H373         -63.1375    12.4135    18.6803 H       
 374 H374         -66.5379    11.5350    17.3081 H       
 375 H375         -68.3137    10.8766    15.0854 H       
 376 H376         -69.7949     9.4596    16.4806 H       
 377 H377         -68.1770     8.7339    16.3259 H       
 378 H378         -68.6360     9.5736    17.8267 H       
 379 H379         -70.7730    12.8696    16.9373 H       
 380 H380          16.9250   -11.1789    11.5897 H       
 381 H381          17.5035   -10.7441     9.9635 H       
 382 H382          18.2300    -9.9835    11.3995 H       
 383 H383          16.0714    -8.8720    11.9030 H       
 384 H384          16.6499    -8.4372    10.2768 H       
 385 H385          15.1691   -10.1632     9.2885 H       
 386 H386          14.5907   -10.5981    10.9147 H       
 387 H387          13.7370    -8.2912    11.2280 H       
 388 H388          14.3155    -7.8563     9.6018 H       
 389 H389          12.8347    -9.5823     8.6135 H       
 390 H390          12.2563   -10.0172    10.2397 H       
 391 H391          11.4026    -7.7103    10.5530 H       
 392 H392          11.9811    -7.2754     8.9268 H       
 393 H393          10.5003    -9.0015     7.9385 H       
 394 H394           9.9219    -9.4364     9.5647 H       
 395 H395           9.0683    -7.1295     9.8780 H       
 396 H396           9.6467    -6.6946     8.2518 H       
 397 H397           8.1659    -8.4206     7.2635 H       
 398 H398           7.5875    -8.8555     8.8898 H       
 399 H399           6.7339    -6.5486     9.2030 H       
 400 H400           7.3123    -6.1137     7.5768 H       
 401 H401           5.8315    -7.8397     6.5886 H       
 402 H402           5.2531    -8.2746     8.2148 H       
 403 H403           4.3995    -5.9677     8.5281 H       
 404 H404           4.9779    -5.5328     6.9018 H       
 405 H405           3.4971    -7.2589     5.9136 H       
 406 H406           2.9187    -7.6938     7.5398 H       
 407 H407           2.0651    -5.3869     7.8531 H       
 408 H408           2.6435    -4.9520     6.2269 H       
 409 H409           0.5843    -7.1129     6.8648 H       
 410 H410           1.1627    -6.6780     5.2386 H       
@<TRIPOS>BOND
   1    1    2 2
   2    1    4 1
   3    1    9 am
   4    3  176 am
   5    3    4 1
   6    3  193 1
   7    4    5 1
   8    4  194 1
   9    5    6 1
  10    5  195 1
  11    5  196 1
  12    6  197 1
  13    7    8 2
  14    7   10 1
  15    7   13 am
  16    9   10 1
  17    9  198 1
  18   10  199 1
  19   10  200 1
  20   11   12 2
  21   11   14 1
  22   11   23 am
  23   13   14 1
  24   13  201 1
  25   14   15 1
  26   14  202 1
  27   15   16 1
  28   15  203 1
  29   15  204 1
  30   16   17 2
  31   16   20 1
  32   17   18 1
  33   17  205 1
  34   18   19 1
  35   18  206 1
  36   19   20 2
  37   19  207 1
  38   21   22 2
  39   21   24 1
  40   21   34 am
  41   23   24 1
  42   23  208 1
  43   24   25 1
  44   24  209 1
  45   25   26 1
  46   25  210 1
  47   25  211 1
  48   26   27 ar
  49   26   31 ar
  50   27   28 ar
  51   27  212 1
  52   28   29 ar
  53   28  213 1
  54   29   30 ar
  55   29  214 1
  56   30   31 ar
  57   30  215 1
  58   31  216 1
  59   32   33 2
  60   32   35 1
  61   32   45 am
  62   34   35 1
  63   34  217 1
  64   35   36 1
  65   35  218 1
  66   36   37 1
  67   36  219 1
  68   36  220 1
  69   37   38 1
  70   37  221 1
  71   37  222 1
  72   38   39 1
  73   38  223 1
  74   38  224 1
  75   39   40 1
  76   39  225 1
  77   40   41 2
  78   40   42 1
  79   41  226 1
  80   42  227 1
  81   42  228 1
  82   43   44 2
  83   43   46 1
  84   43   54 am
  85   45   46 1
  86   45  229 1
  87   46   47 1
  88   46  230 1
  89   47   48 1
  90   47  231 1
  91   47  232 1
  92   48   49 1
  93   48  233 1
  94   48  234 1
  95   49   50 1
  96   49  235 1
  97   49  236 1
  98   50   51 1
  99   50  237 1
 100   50  238 1
 101   51  239 1
 102   51  240 1
 103   52   53 2
 104   52   55 1
 105   52   63 am
 106   54   55 1
 107   54  241 1
 108   55   56 1
 109   55  242 1
 110   56   57 1
 111   56  243 1
 112   56  244 1
 113   57   58 1
 114   57  245 1
 115   57  246 1
 116   58   59 2
 117   58   60 1
 118   60  247 1
 119   61   62 2
 120   61   64 1
 121   61   74 am
 122   63   64 1
 123   63  248 1
 124   64   65 1
 125   64  249 1
 126   65   66 1
 127   65  250 1
 128   65  251 1
 129   66   67 1
 130   66  252 1
 131   66  253 1
 132   67   68 1
 133   67  254 1
 134   67  255 1
 135   68   69 1
 136   68  256 1
 137   69   70 2
 138   69   71 1
 139   70  257 1
 140   71  258 1
 141   71  259 1
 142   72   73 2
 143   72   75 1
 144   72   82 am
 145   74   75 1
 146   74  260 1
 147   75   76 1
 148   75  261 1
 149   76   77 1
 150   76   79 1
 151   76  262 1
 152   77   78 1
 153   77  263 1
 154   77  264 1
 155   78  265 1
 156   78  266 1
 157   78  267 1
 158   79  268 1
 159   79  269 1
 160   79  270 1
 161   80   81 2
 162   80   83 1
 163   80   91 am
 164   82   83 1
 165   82  271 1
 166   83   84 1
 167   83  272 1
 168   84   85 1
 169   84  273 1
 170   84  274 1
 171   85   86 1
 172   85  275 1
 173   85  276 1
 174   86   87 2
 175   86   88 1
 176   88  277 1
 177   89   90 2
 178   89   92 1
 179   89   95 am
 180   91   92 1
 181   91  278 1
 182   92  279 1
 183   92  280 1
 184   93   94 2
 185   93   96 1
 186   93  103 am
 187   95   96 1
 188   95  281 1
 189   96   97 1
 190   96  282 1
 191   97   98 1
 192   97  283 1
 193   97  284 1
 194   98   99 1
 195   98  100 1
 196   98  285 1
 197   99  286 1
 198   99  287 1
 199   99  288 1
 200  100  289 1
 201  100  290 1
 202  100  291 1
 203  101  102 2
 204  101  104 1
 205  101  114 am
 206  103  104 1
 207  103  292 1
 208  104  105 1
 209  104  293 1
 210  105  106 1
 211  105  294 1
 212  105  295 1
 213  106  107 1
 214  106  296 1
 215  106  297 1
 216  107  108 1
 217  107  298 1
 218  107  299 1
 219  108  109 1
 220  108  300 1
 221  109  110 2
 222  109  111 1
 223  110  301 1
 224  111  302 1
 225  111  303 1
 226  112  113 2
 227  112  115 1
 228  112  123 am
 229  114  115 1
 230  114  304 1
 231  115  116 1
 232  115  305 1
 233  116  117 1
 234  116  306 1
 235  116  307 1
 236  117  118 1
 237  117  308 1
 238  117  309 1
 239  118  119 1
 240  118  310 1
 241  118  311 1
 242  119  120 1
 243  119  312 1
 244  119  313 1
 245  120  314 1
 246  120  315 1
 247  121  122 2
 248  121  124 1
 249  121  134 am
 250  123  124 1
 251  123  316 1
 252  124  125 1
 253  124  317 1
 254  125  126 1
 255  125  318 1
 256  125  319 1
 257  126  127 1
 258  126  320 1
 259  126  321 1
 260  127  128 1
 261  127  322 1
 262  127  323 1
 263  128  129 1
 264  128  324 1
 265  129  130 2
 266  129  131 1
 267  130  325 1
 268  131  326 1
 269  131  327 1
 270  132  133 2
 271  132  135 1
 272  132  145 am
 273  134  135 1
 274  134  328 1
 275  135  136 1
 276  135  329 1
 277  136  137 1
 278  136  330 1
 279  136  331 1
 280  137  138 1
 281  137  332 1
 282  137  333 1
 283  138  139 1
 284  138  334 1
 285  138  335 1
 286  139  140 1
 287  139  336 1
 288  140  141 2
 289  140  142 1
 290  141  337 1
 291  142  338 1
 292  142  339 1
 293  143  144 2
 294  143  146 1
 295  143  156 am
 296  145  146 1
 297  145  340 1
 298  146  147 1
 299  146  341 1
 300  147  148 1
 301  147  342 1
 302  147  343 1
 303  148  149 1
 304  148  344 1
 305  148  345 1
 306  149  150 1
 307  149  346 1
 308  149  347 1
 309  150  151 1
 310  150  348 1
 311  151  152 2
 312  151  153 1
 313  152  349 1
 314  153  350 1
 315  153  351 1
 316  154  155 2
 317  154  157 1
 318  154  164 am
 319  156  157 1
 320  156  352 1
 321  157  158 1
 322  157  353 1
 323  158  159 1
 324  158  354 1
 325  158  355 1
 326  159  160 1
 327  159  161 1
 328  159  356 1
 329  160  357 1
 330  160  358 1
 331  160  359 1
 332  161  360 1
 333  161  361 1
 334  161  362 1
 335  162  163 2
 336  162  165 1
 337  162  172 am
 338  164  165 1
 339  164  363 1
 340  165  166 1
 341  165  364 1
 342  166  167 1
 343  166  365 1
 344  166  366 1
 345  167  168 1
 346  167  169 1
 347  167  367 1
 348  168  368 1
 349  168  369 1
 350  168  370 1
 351  169  371 1
 352  169  372 1
 353  169  373 1
 354  170  171 2
 355  170  173 1
 356  170  175 1
 357  172  173 1
 358  172  374 1
 359  173  174 1
 360  173  375 1
 361  174  376 1
 362  174  377 1
 363  174  378 1
 364  175  379 1
 365  176  177 2
 366  176  192 1
 367  178  179 1
 368  178  380 1
 369  178  381 1
 370  178  382 1
 371  179  180 1
 372  179  383 1
 373  179  384 1
 374  180  181 1
 375  180  385 1
 376  180  386 1
 377  181  182 1
 378  181  387 1
 379  181  388 1
 380  182  183 1
 381  182  389 1
 382  182  390 1
 383  183  184 1
 384  183  391 1
 385  183  392 1
 386  184  185 1
 387  184  393 1
 388  184  394 1
 389  185  186 1
 390  185  395 1
 391  185  396 1
 392  186  187 1
 393  186  397 1
 394  186  398 1
 395  187  188 1
 396  187  399 1
 397  187  400 1
 398  188  189 1
 399  188  401 1
 400  188  402 1
 401  189  190 1
 402  189  403 1
 403  189  404 1
 404  190  191 1
 405  190  405 1
 406  190  406 1
 407  191  192 1
 408  191  407 1
 409  191  408 1
 410  192  409 1
 411  192  410 1

#	End of record

