#	Name: ASD01901167
#	Creating user name:	WinNT
#	Creation time:	15. 06. 2019 19:53

#	Modifying user name:	WinNT
#	Modification time:	15. 06. 2019 19:53

#	Program:	/corina/corina34_cracker 3.40 0067  02.08.2006

@<TRIPOS>MOLECULE
ASD01901167
  50   53    0    0    0
SMALL
NO_CHARGES


@<TRIPOS>ATOM
   1 C1            -0.0273     1.3131    -0.0683 C.ar    
   2 N2            -0.0108    -0.0032    -0.0843 N.ar    
   3 C3             1.1181    -0.6860    -0.1040 C.ar    
   4 C4             2.3428    -0.0429    -0.1087 C.ar    
   5 C5             2.3820     1.3400    -0.0924 C.ar    
   6 C6             1.1673     2.0383    -0.0717 C.ar    
   7 C7             1.1504     3.4701    -0.0547 C.1     
   8 C8             1.1365     4.6440    -0.0409 C.1     
   9 C9             1.1195     6.0758    -0.0239 C.ar    
  10 C10            2.3205     6.7907    -0.0275 C.ar    
  11 C11            2.3005     8.1697    -0.0116 C.ar    
  12 C12            1.0880     8.8492     0.0084 C.ar    
  13 C13           -0.1104     8.1414     0.0125 C.ar    
  14 C14           -0.0985     6.7621    -0.0096 C.ar    
  15 N15            1.0722    10.2510     0.0249 N.am    
  16 C16            1.0532    10.9262    -1.1363 C.2     
  17 N17            0.7991    12.2442    -1.1794 N.am    
  18 C18            0.4105    12.9755     0.0280 C.3     
  19 C19            1.1597    12.4053     1.2345 C.3     
  20 C20            1.0708    10.8999     1.2037 C.2     
  21 O21            1.2715    10.3301    -2.1727 O.2     
  22 O22            1.0020    10.2746     2.2401 O.2     
  23 C23            0.9127    12.9603    -2.4524 C.3     
  24 C24            0.7650    14.4544    -0.1399 C.3     
  25 C25           -1.0740    12.8369     0.2473 C.ar    
  26 Cl26           3.7920     9.0582    -0.0161 Cl      
  27 C27           -1.8619    12.1728    -0.6806 C.ar    
  28 C28           -1.6664    13.3651     1.3785 C.ar    
  29 N29           -2.9647    13.2470     1.5779 N.ar    
  30 C30           -3.7451    12.6267     0.7149 C.ar    
  31 C31           -3.2227    12.0692    -0.4371 C.ar    
  32 F32           -1.2865     8.8059     0.0324 F       
  33 H33           -0.9718     1.8368    -0.0569 H       
  34 H34            1.0854    -1.7655    -0.1163 H       
  35 H35            3.2590    -0.6144    -0.1245 H       
  36 H36            3.3244     1.8676    -0.0952 H       
  37 H37            3.2631     6.2638    -0.0423 H       
  38 H38           -1.0286     6.2132    -0.0109 H       
  39 H39            2.2046    12.7129     1.1930 H       
  40 H40            0.7062    12.7766     2.1535 H       
  41 H41            1.2096    12.2633    -3.2361 H       
  42 H42           -0.0497    13.4045    -2.7066 H       
  43 H43            1.6628    13.7459    -2.3616 H       
  44 H44            1.8387    14.5549    -0.2982 H       
  45 H45            0.2314    14.8606    -0.9993 H       
  46 H46            0.4773    15.0012     0.7580 H       
  47 H47           -1.4258    11.7467    -1.5721 H       
  48 H48           -1.0590    13.8802     2.1081 H       
  49 H49           -4.8041    12.5498     0.9123 H       
  50 H50           -3.8664    11.5587    -1.1381 H       
@<TRIPOS>BOND
   1    1    2 ar
   2    1    6 ar
   3    1   33 1
   4    2    3 ar
   5    3    4 ar
   6    3   34 1
   7    4    5 ar
   8    4   35 1
   9    5    6 ar
  10    5   36 1
  11    6    7 1
  12    7    8 3
  13    8    9 1
  14    9   10 ar
  15    9   14 ar
  16   10   11 ar
  17   10   37 1
  18   11   12 ar
  19   11   26 1
  20   12   13 ar
  21   12   15 1
  22   13   14 ar
  23   13   32 1
  24   14   38 1
  25   15   16 am
  26   15   20 am
  27   16   17 am
  28   16   21 2
  29   17   23 1
  30   17   18 1
  31   18   19 1
  32   18   24 1
  33   18   25 1
  34   19   20 1
  35   19   39 1
  36   19   40 1
  37   20   22 2
  38   23   41 1
  39   23   42 1
  40   23   43 1
  41   24   44 1
  42   24   45 1
  43   24   46 1
  44   25   28 ar
  45   25   27 ar
  46   27   31 ar
  47   27   47 1
  48   28   29 ar
  49   28   48 1
  50   29   30 ar
  51   30   31 ar
  52   30   49 1
  53   31   50 1

#	End of record

