#	Name: ASD01913384
#	Creating user name:	WinNT
#	Creation time:	15. 06. 2019 20:01

#	Modifying user name:	WinNT
#	Modification time:	15. 06. 2019 20:01

#	Program:	/corina/corina34_cracker 3.40 0067  02.08.2006

@<TRIPOS>MOLECULE
ASD01913384
  34   36    0    0    0
SMALL
NO_CHARGES


@<TRIPOS>ATOM
   1 C1            -0.1084    -0.7204    -2.1595 C.ar    
   2 C2            -0.5526    -0.0423    -1.0289 C.ar    
   3 C3            -0.5256     1.3485    -1.0414 C.ar    
   4 N4            -0.0817     1.9723    -2.1202 N.ar    
   5 C5             0.3308     1.2940    -3.1721 C.ar    
   6 N6             0.3207    -0.0236    -3.1988 N.ar    
   7 C7            -1.0075    -2.0790     0.0070 C.ar    
   8 C8             0.1732    -2.7853     0.1914 C.ar    
   9 C9             0.1722    -4.1684     0.1445 C.ar    
  10 C10           -1.0038    -4.8545    -0.0860 C.ar    
  11 C11           -2.1957    -4.1518    -0.2725 C.ar    
  12 C12           -2.1926    -2.7576    -0.2250 C.ar    
  13 C13           -3.4565    -4.8826    -0.5201 C.2     
  14 N14           -3.4568    -6.2296    -0.5660 N.am    
  15 C15           -4.6591    -6.9220    -0.6933 C.ar    
  16 O16           -4.4930    -4.2687    -0.6822 O.2     
  17 O17           -1.0016    -0.7211     0.0595 O.3     
  18 C18           -4.6647    -8.3093    -0.6231 C.ar    
  19 C19           -5.8686    -8.9856    -0.7514 C.ar    
  20 C20           -7.0282    -8.2428    -0.9463 C.ar    
  21 C21           -6.9462    -6.8664    -1.0056 C.ar    
  22 N22           -5.7864    -6.2510    -0.8747 N.ar    
  23 Cl23           1.6537    -5.0434     0.3757 Cl      
  24 F24           -5.9139   -10.3344    -0.6889 F       
  25 H25           -0.1097    -1.8001    -2.1866 H       
  26 H26           -0.8624     1.9108    -0.1830 H       
  27 H27            0.6873     1.8334    -4.0372 H       
  28 H28            1.0959    -2.2536     0.3717 H       
  29 H29           -1.0015    -5.9339    -0.1224 H       
  30 H30           -3.1117    -2.2089    -0.3683 H       
  31 H31           -2.6200    -6.7169    -0.5105 H       
  32 H32           -3.7444    -8.8535    -0.4710 H       
  33 H33           -7.9825    -8.7377    -1.0505 H       
  34 H34           -7.8438    -6.2851    -1.1569 H       
@<TRIPOS>BOND
   1    1    2 ar
   2    1    6 ar
   3    1   25 1
   4    2    3 ar
   5    2   17 1
   6    3    4 ar
   7    3   26 1
   8    4    5 ar
   9    5    6 ar
  10    5   27 1
  11    7    8 ar
  12    7   12 ar
  13    7   17 1
  14    8    9 ar
  15    8   28 1
  16    9   10 ar
  17    9   23 1
  18   10   11 ar
  19   10   29 1
  20   11   12 ar
  21   11   13 1
  22   12   30 1
  23   13   14 am
  24   13   16 2
  25   14   15 1
  26   14   31 1
  27   15   18 ar
  28   15   22 ar
  29   18   19 ar
  30   18   32 1
  31   19   20 ar
  32   19   24 1
  33   20   21 ar
  34   20   33 1
  35   21   22 ar
  36   21   34 1

#	End of record

