#	Name: ASD01916061
#	Creating user name:	WinNT
#	Creation time:	15. 06. 2019 20:06

#	Modifying user name:	WinNT
#	Modification time:	15. 06. 2019 20:06

#	Program:	/corina/corina34_cracker 3.40 0067  02.08.2006

@<TRIPOS>MOLECULE
ASD01916061
  46   48    0    0    0
SMALL
NO_CHARGES


@<TRIPOS>ATOM
   1 C1            -0.0169     1.3974     0.0097 C.ar    
   2 C2             0.0021    -0.0041     0.0020 C.ar    
   3 C3            -1.2070    -0.6758     0.0095 C.ar    
   4 C4            -2.3852     0.0496     0.0241 C.ar    
   5 C5            -3.7040    -0.6796     0.0323 C.3     
   6 C6             1.2059     2.1425     0.0021 C.1     
   7 C7             2.2084     2.7534    -0.0042 C.1     
   8 C8             3.4313     3.4985    -0.0119 C.ar    
   9 C9             3.4022     4.8955    -0.0041 C.ar    
  10 C10            5.8331     3.5564    -0.0288 C.ar    
  11 C11            4.5840     5.6065    -0.0116 C.ar    
  12 N12           -2.3736     1.3687     0.0316 N.ar    
  13 C13           -1.2496     2.0547     0.0192 C.ar    
  14 C14            4.6594     2.8321    -0.0214 C.ar    
  15 C15            5.7965     4.9397    -0.0269 C.ar    
  16 C16           -4.1012    -1.0280    -1.4043 C.3     
  17 C17           -3.5746    -1.9355     0.8455 C.2     
  18 N18           -4.0950    -3.1071     0.4785 N.am    
  19 C19           -4.8102    -3.3278    -0.7722 C.3     
  20 C20           -5.2879    -1.9981    -1.3573 C.3     
  21 O21           -2.9638    -1.8813     1.8919 O.2     
  22 C22           -3.9377    -4.2437     1.3892 C.3     
  23 C23           -3.8789    -4.0155    -1.7727 C.3     
  24 C24           -6.0189    -4.2288    -0.5114 C.3     
  25 H25            0.9365    -0.5454    -0.0098 H       
  26 H26           -1.2312    -1.7555     0.0035 H       
  27 H27           -4.4684    -0.0406     0.4744 H       
  28 H28            2.4566     5.4173     0.0074 H       
  29 H29            6.7831     3.0427    -0.0404 H       
  30 H30            4.5631     6.6863    -0.0060 H       
  31 H31           -1.2809     3.1342     0.0258 H       
  32 H32            4.6896     1.7525    -0.0227 H       
  33 H33            6.7187     5.5017    -0.0327 H       
  34 H34           -4.3895    -0.1210    -1.9356 H       
  35 H35           -3.2610    -1.5005    -1.9131 H       
  36 H36           -6.0752    -1.5834    -0.7278 H       
  37 H37           -5.6691    -2.1582    -2.3659 H       
  38 H38           -3.3861    -3.9266     2.2742 H       
  39 H39           -4.9204    -4.6106     1.6857 H       
  40 H40           -3.3895    -5.0398     0.8854 H       
  41 H41           -3.5514    -4.9722    -1.3659 H       
  42 H42           -4.4111    -4.1819    -2.7093 H       
  43 H43           -3.0108    -3.3822    -1.9556 H       
  44 H44           -6.6819    -3.7481     0.2080 H       
  45 H45           -6.5559    -4.3957    -1.4452 H       
  46 H46           -5.6802    -5.1844    -0.1112 H       
@<TRIPOS>BOND
   1    1    2 ar
   2    1    6 1
   3    1   13 ar
   4    2    3 ar
   5    2   25 1
   6    3    4 ar
   7    3   26 1
   8    4   12 ar
   9    4    5 1
  10    5   16 1
  11    5   17 1
  12    5   27 1
  13    6    7 3
  14    7    8 1
  15    8    9 ar
  16    8   14 ar
  17    9   11 ar
  18    9   28 1
  19   10   15 ar
  20   10   14 ar
  21   10   29 1
  22   11   15 ar
  23   11   30 1
  24   12   13 ar
  25   13   31 1
  26   14   32 1
  27   15   33 1
  28   16   20 1
  29   16   34 1
  30   16   35 1
  31   17   18 am
  32   17   21 2
  33   18   19 1
  34   18   22 1
  35   19   20 1
  36   19   23 1
  37   19   24 1
  38   20   36 1
  39   20   37 1
  40   22   38 1
  41   22   39 1
  42   22   40 1
  43   23   41 1
  44   23   42 1
  45   23   43 1
  46   24   44 1
  47   24   45 1
  48   24   46 1

#	End of record

