#	Name: ASD01811823
#	Creating user name:	WinNT
#	Creation time:	15. 06. 2019 19:27

#	Modifying user name:	WinNT
#	Modification time:	15. 06. 2019 19:27

#	Program:	/corina/corina34_cracker 3.40 0067  02.08.2006

@<TRIPOS>MOLECULE
ASD01811823
  54   57    0    0    0
SMALL
NO_CHARGES


@<TRIPOS>ATOM
   1 C1            -0.0167     1.3816     0.0096 C.ar    
   2 C2             0.0021    -0.0041     0.0020 C.ar    
   3 C3            -1.1845    -0.7157     0.0095 C.ar    
   4 C4            -2.3943    -0.0531     0.0241 C.ar    
   5 C5            -2.4221     1.3429     0.0318 C.ar    
   6 C6            -1.2191     2.0523     0.0305 C.ar    
   7 Cl7            1.4742     2.2709     0.0002 Cl      
   8 C8             1.3183    -0.7377    -0.0149 C.3     
   9 C9            -1.1551    -2.2224     0.0011 C.3     
  10 C10           -1.0080    -2.7298     1.4125 C.ar    
  11 C11           -2.1329    -2.9861     2.1745 C.ar    
  12 C12           -2.0008    -3.4513     3.4685 C.ar    
  13 C13           -0.7380    -3.6613     4.0033 C.ar    
  14 C14            0.3891    -3.4033     3.2367 C.ar    
  15 C15            0.2515    -2.9436     1.9413 C.ar    
  16 O16           -0.6054    -4.1184     5.2763 O.3     
  17 C17            0.7250    -4.3114     5.7609 C.3     
  18 C18           -3.5323     2.3147     0.0472 C.2     
  19 N19           -3.0526     3.5704     0.0495 N.am    
  20 C20           -1.5863     3.5151     0.0400 C.3     
  21 O21           -4.7120     2.0216     0.0560 O.2     
  22 C22           -3.8604     4.7924     0.0627 C.3     
  23 C23           -4.7322     4.8140     1.3198 C.3     
  24 C24           -5.5759     6.0903     1.3336 C.3     
  25 C25           -6.4699     6.1241     0.0923 C.3     
  26 C26           -5.5981     6.1025    -1.1648 C.3     
  27 C27           -4.7544     4.8262    -1.1785 C.3     
  28 O28           -3.8973     4.7824     2.4791 O.3     
  29 H29           -3.3179    -0.6128     0.0291 H       
  30 H30            1.6458    -0.9201     1.0086 H       
  31 H31            1.1973    -1.6892    -0.5327 H       
  32 H32            2.0639    -0.1345    -0.5329 H       
  33 H33           -2.0833    -2.6016    -0.4264 H       
  34 H34           -0.3120    -2.5660    -0.5982 H       
  35 H35           -3.1157    -2.8221     1.7578 H       
  36 H36           -2.8797    -3.6510     4.0634 H       
  37 H37            1.3732    -3.5660     3.6508 H       
  38 H38            1.1286    -2.7427     1.3440 H       
  39 H39            1.2383    -5.0398     5.1332 H       
  40 H40            1.2631    -3.3640     5.7325 H       
  41 H41            0.6883    -4.6778     6.7869 H       
  42 H42           -1.1876     3.9961     0.9332 H       
  43 H43           -1.1988     4.0038    -0.8539 H       
  44 H44           -3.2035     5.6622     0.0611 H       
  45 H45           -5.3891     3.9442     1.3214 H       
  46 H46           -6.1970     6.1057     2.2292 H       
  47 H47           -4.9190     6.9601     1.3320 H       
  48 H48           -7.1268     5.2543     0.0939 H       
  49 H49           -7.0709     7.0334     0.1021 H       
  50 H50           -6.2349     6.1266    -2.0491 H       
  51 H51           -4.9411     6.9723    -1.1664 H       
  52 H52           -4.1333     4.8109    -2.0741 H       
  53 H53           -5.4113     3.9564    -1.1770 H       
  54 H54           -4.3839     4.7939     3.3147 H       
@<TRIPOS>BOND
   1    1    2 ar
   2    1    7 1
   3    1    6 ar
   4    2    3 ar
   5    2    8 1
   6    3    4 ar
   7    3    9 1
   8    4    5 ar
   9    4   29 1
  10    5    6 ar
  11    5   18 1
  12    6   20 1
  13    8   30 1
  14    8   31 1
  15    8   32 1
  16    9   10 1
  17    9   33 1
  18    9   34 1
  19   10   11 ar
  20   10   15 ar
  21   11   12 ar
  22   11   35 1
  23   12   13 ar
  24   12   36 1
  25   13   14 ar
  26   13   16 1
  27   14   15 ar
  28   14   37 1
  29   15   38 1
  30   16   17 1
  31   17   39 1
  32   17   40 1
  33   17   41 1
  34   18   19 am
  35   18   21 2
  36   19   20 1
  37   19   22 1
  38   20   42 1
  39   20   43 1
  40   22   23 1
  41   22   27 1
  42   22   44 1
  43   23   24 1
  44   23   28 1
  45   23   45 1
  46   24   25 1
  47   24   46 1
  48   24   47 1
  49   25   26 1
  50   25   48 1
  51   25   49 1
  52   26   27 1
  53   26   50 1
  54   26   51 1
  55   27   52 1
  56   27   53 1
  57   28   54 1

#	End of record

