#	Name: ASD06770032
#	Creating user name:	WinNT
#	Creation time:	15. 06. 2019 21:08

#	Modifying user name:	WinNT
#	Modification time:	15. 06. 2019 21:08

#	Program:	/corina/corina34_cracker 3.40 0067  02.08.2006

@<TRIPOS>MOLECULE
ASD06770032
  52   55    0    0    0
SMALL
NO_CHARGES


@<TRIPOS>ATOM
   1 N1            -0.1505     1.2264     0.5121 N.2     
   2 N2            -0.1083    -0.0592     0.4114 N.2     
   3 C3             1.1383    -0.4660     0.3965 C.2     
   4 N4             1.9041     0.6355     0.4960 N.pl3   
   5 C5             3.2904     0.8244     0.5383 C.ar    
   6 C6             3.7870     1.7108     1.4938 C.ar    
   7 C7             2.8384     2.2941     2.4983 C.3     
   8 O8             2.0426     3.3760     1.9882 O.3     
   9 C9             1.5259     3.1225     0.6738 C.3     
  10 C10            1.0565     1.7010     0.5645 C.2     
  11 C11            5.1336     2.0025     1.5195 C.ar    
  12 C12            5.9930     1.3741     0.6337 C.ar    
  13 C13            5.5061     0.4552    -0.2790 C.ar    
  14 C14            4.1512     0.1801    -0.3290 C.ar    
  15 C15            1.6194    -1.8901     0.2890 C.3     
  16 C16            1.0804    -2.7009     1.4692 C.3     
  17 C17            1.5688    -4.1468     1.3601 C.3     
  18 C18            1.0665    -4.7572     0.0501 C.3     
  19 C19            1.6054    -3.9464    -1.1301 C.3     
  20 C20            1.1170    -2.5005    -1.0209 C.3     
  21 O21            1.5227    -6.1076    -0.0518 O.3     
  22 Cl22           7.6893     1.7416     0.6682 Cl      
  23 C23            0.5587    -7.0066    -0.6038 C.3     
  24 C24            0.7078    -7.0424    -2.1261 C.3     
  25 C25            0.7856    -8.4091    -0.0361 C.3     
  26 C26            0.5146    -8.3998     1.4697 C.3     
  27 H27            2.1709     1.5051     2.8449 H       
  28 H28            3.4138     2.6573     3.3498 H       
  29 H29            0.6903     3.7945     0.4787 H       
  30 H30            2.3093     3.3015    -0.0626 H       
  31 H31            5.5181     2.7201     2.2291 H       
  32 H32            6.1840    -0.0476    -0.9528 H       
  33 H33            3.7684    -0.5349    -1.0421 H       
  34 H34            2.7091    -1.9075     0.3036 H       
  35 H35            1.4383    -2.2660     2.4024 H       
  36 H36           -0.0093    -2.6834     1.4546 H       
  37 H37            2.6586    -4.1642     1.3747 H       
  38 H38            1.1849    -4.7244     2.2009 H       
  39 H39           -0.0233    -4.7397     0.0355 H       
  40 H40            2.6952    -3.9638    -1.1155 H       
  41 H41            1.2475    -4.3813    -2.0633 H       
  42 H42            0.0273    -2.4830    -1.0355 H       
  43 H43            1.5010    -1.9228    -1.8618 H       
  44 H44           -0.4443    -6.6676    -0.3448 H       
  45 H45            1.7378    -7.2879    -2.3847 H       
  46 H46            0.0395    -7.7981    -2.5390 H       
  47 H47            0.4521    -6.0666    -2.5393 H       
  48 H48            0.1091    -9.1118    -0.5226 H       
  49 H49            1.8167    -8.7123    -0.2178 H       
  50 H50            1.1911    -7.6971     1.9562 H       
  51 H51           -0.5165    -8.0966     1.6515 H       
  52 H52            0.6763    -9.3990     1.8742 H       
@<TRIPOS>BOND
   1    1    2 1
   2    1   10 2
   3    2    3 2
   4    3    4 1
   5    3   15 1
   6    4    5 1
   7    4   10 1
   8    5    6 ar
   9    5   14 ar
  10    6    7 1
  11    6   11 ar
  12    7    8 1
  13    7   27 1
  14    7   28 1
  15    8    9 1
  16    9   10 1
  17    9   29 1
  18    9   30 1
  19   11   12 ar
  20   11   31 1
  21   12   13 ar
  22   12   22 1
  23   13   14 ar
  24   13   32 1
  25   14   33 1
  26   15   16 1
  27   15   20 1
  28   15   34 1
  29   16   17 1
  30   16   35 1
  31   16   36 1
  32   17   18 1
  33   17   37 1
  34   17   38 1
  35   18   19 1
  36   18   21 1
  37   18   39 1
  38   19   20 1
  39   19   40 1
  40   19   41 1
  41   20   42 1
  42   20   43 1
  43   21   23 1
  44   23   24 1
  45   23   25 1
  46   23   44 1
  47   24   45 1
  48   24   46 1
  49   24   47 1
  50   25   26 1
  51   25   48 1
  52   25   49 1
  53   26   50 1
  54   26   51 1
  55   26   52 1

#	End of record

