#	Name: ASD01948008
#	Creating user name:	WinNT
#	Creation time:	15. 06. 2019 20:13

#	Modifying user name:	WinNT
#	Modification time:	15. 06. 2019 20:13

#	Program:	/corina/corina34_cracker 3.40 0067  02.08.2006

@<TRIPOS>MOLECULE
ASD01948008
  27   28    0    0    0
SMALL
NO_CHARGES


@<TRIPOS>ATOM
   1 C1             0.4244     0.7316    -1.3815 C.ar    
   2 C2            -0.0196     0.0496    -0.2713 C.ar    
   3 C3             0.7315     0.0457     0.8968 C.ar    
   4 C4             1.9348     0.7269     0.9572 C.ar    
   5 C5             2.3976     1.4205    -0.1547 C.ar    
   6 C6             1.6382     1.4249    -1.3366 C.ar    
   7 F7             2.6595     0.7181     2.0974 F       
   8 C8             4.7860     0.1079    -0.7626 C.ar    
   9 C9             4.8060     1.4320    -0.3474 C.ar    
  10 N10            3.6051     2.1066    -0.0975 N.pl3   
  11 C11            5.9725    -0.5566    -1.0083 C.ar    
  12 C12            7.1814     0.0968    -0.8409 C.ar    
  13 C13            7.2056     1.4183    -0.4267 C.ar    
  14 C14            6.0214     2.0875    -0.1795 C.ar    
  15 F15            8.3396    -0.5556    -1.0820 F       
  16 F16            6.0446     3.3765     0.2245 F       
  17 F17            0.2850    -0.6265     1.9803 F       
  18 C18            2.1173     2.1551    -2.5212 C.2     
  19 O19            3.1211     2.8367    -2.4500 O.2     
  20 O20            1.4429     2.0681    -3.6849 O.3     
  21 H21           -0.1622     0.7275    -2.2882 H       
  22 H22           -0.9573    -0.4849    -0.3087 H       
  23 H23            3.8437    -0.4044    -0.8893 H       
  24 H24            3.6157     3.0529     0.1155 H       
  25 H25            5.9567    -1.5871    -1.3310 H       
  26 H26            8.1499     1.9258    -0.2961 H       
  27 H27            1.7961     2.5655    -4.4353 H       
@<TRIPOS>BOND
   1    1    2 ar
   2    1    6 ar
   3    1   21 1
   4    2    3 ar
   5    2   22 1
   6    3    4 ar
   7    3   17 1
   8    4    5 ar
   9    4    7 1
  10    5    6 ar
  11    5   10 1
  12    6   18 1
  13    8    9 ar
  14    8   11 ar
  15    8   23 1
  16    9   10 1
  17    9   14 ar
  18   10   24 1
  19   11   12 ar
  20   11   25 1
  21   12   13 ar
  22   12   15 1
  23   13   14 ar
  24   13   26 1
  25   14   16 1
  26   18   19 2
  27   18   20 1
  28   20   27 1

#	End of record

