#	Name: ASD00069078
#	Creating user name:	WinNT
#	Creation time:	15. 06. 2019 18:29

#	Modifying user name:	WinNT
#	Modification time:	15. 06. 2019 18:29

#	Program:	/corina/corina34_cracker 3.40 0067  02.08.2006

@<TRIPOS>MOLECULE
ASD00069078
  44   48    0    0    0
SMALL
NO_CHARGES


@<TRIPOS>ATOM
   1 C1            -0.0168     1.3846     0.0097 C.ar    
   2 C2             0.0021    -0.0041     0.0020 C.ar    
   3 C3             1.1870    -0.6829    -0.0129 C.ar    
   4 C4             2.3913     0.0232    -0.0206 C.ar    
   5 C5             2.3778     1.4297    -0.0129 C.ar    
   6 C6             1.1579     2.1019     0.0023 C.ar    
   7 C7             3.8043    -0.3749    -0.0362 C.2     
   8 N8             4.5242     0.7233    -0.0372 N.2     
   9 N9             3.6860     1.8426    -0.0232 N.pl3   
  10 C10            4.3215    -1.7575    -0.0478 C.2     
  11 N11            3.5812    -2.8403    -0.0463 N.2     
  12 N12            5.6467    -2.1031    -0.0678 N.pl3   
  13 C13            4.1346     3.2373    -0.0200 C.3     
  14 O14            5.1960     3.3943     0.9239 O.3     
  15 C15            5.6929     4.7303     1.0261 C.3     
  16 C16            6.2561     5.1688    -0.3282 C.3     
  17 C17            5.1578     5.0554    -1.3900 C.3     
  18 C18            4.6351     3.6158    -1.4163 C.3     
  19 C19            4.3777    -3.9367    -0.0591 C.ar    
  20 C20            5.7088    -3.4834    -0.0729 C.ar    
  21 C21            4.1199    -5.3115    -0.0634 C.ar    
  22 C22            5.1583    -6.1988    -0.0775 C.ar    
  23 C23            6.4718    -5.7513    -0.0870 C.ar    
  24 C24            6.7503    -4.4005    -0.0873 C.ar    
  25 N25           -1.2735    -0.7550     0.0106 N.pl3   
  26 O26           -2.3333    -0.1550     0.0244 O.2     
  27 O27           -1.2632    -1.9730     0.0040 O.2     
  28 H28           -0.9622     1.9067     0.0169 H       
  29 H29            1.1924    -1.7629    -0.0184 H       
  30 H30            1.1339     3.1816     0.0080 H       
  31 H31            6.4007    -1.4929    -0.0771 H       
  32 H32            3.3033     3.8858     0.2566 H       
  33 H33            4.8821     5.3985     1.3163 H       
  34 H34            6.4819     4.7681     1.7773 H       
  35 H35            6.5954     6.2027    -0.2641 H       
  36 H36            7.0933     4.5259    -0.6001 H       
  37 H37            4.3418     5.7352    -1.1446 H       
  38 H38            5.5671     5.3127    -2.3669 H       
  39 H39            5.4395     2.9415    -1.7101 H       
  40 H40            3.8151     3.5391    -2.1304 H       
  41 H41            3.1014    -5.6708    -0.0554 H       
  42 H42            4.9550    -7.2595    -0.0808 H       
  43 H43            7.2817    -6.4657    -0.0973 H       
  44 H44            7.7745    -4.0580    -0.0947 H       
@<TRIPOS>BOND
   1    1    2 ar
   2    1    6 ar
   3    1   28 1
   4    2    3 ar
   5    2   25 1
   6    3    4 ar
   7    3   29 1
   8    4    5 ar
   9    4    7 1
  10    5    6 ar
  11    5    9 1
  12    6   30 1
  13    7    8 2
  14    7   10 1
  15    8    9 1
  16    9   13 1
  17   10   11 2
  18   10   12 1
  19   11   19 1
  20   12   20 1
  21   12   31 1
  22   13   14 1
  23   13   18 1
  24   13   32 1
  25   14   15 1
  26   15   16 1
  27   15   33 1
  28   15   34 1
  29   16   17 1
  30   16   35 1
  31   16   36 1
  32   17   18 1
  33   17   37 1
  34   17   38 1
  35   18   39 1
  36   18   40 1
  37   19   20 ar
  38   19   21 ar
  39   20   24 ar
  40   21   22 ar
  41   21   41 1
  42   22   23 ar
  43   22   42 1
  44   23   24 ar
  45   23   43 1
  46   24   44 1
  47   25   26 2
  48   25   27 2

#	End of record

