#	Name: ASD01816431
#	Creating user name:	WinNT
#	Creation time:	15. 06. 2019 19:35

#	Modifying user name:	WinNT
#	Modification time:	15. 06. 2019 19:35

#	Program:	/corina/corina34_cracker 3.40 0067  02.08.2006

@<TRIPOS>MOLECULE
ASD01816431
  50   55    0    0    0
SMALL
NO_CHARGES


@<TRIPOS>ATOM
   1 C1            -0.0167     1.3813     0.0096 C.ar    
   2 C2             0.0021    -0.0041     0.0020 C.ar    
   3 C3             1.1984    -0.6909    -0.0131 C.ar    
   4 C4             2.4015     0.0059    -0.0204 C.ar    
   5 C5             2.3790     1.4106    -0.0127 C.ar    
   6 C6             1.1663     2.0916     0.0022 C.ar    
   7 N7             3.6053    -0.6772    -0.0347 N.pl3   
   8 C8             4.7970    -0.0585    -0.0419 C.2     
   9 C9             4.9000     1.3103    -0.0359 C.2     
  10 C10            3.6670     2.1302    -0.0207 C.2     
  11 C11            5.9971     2.2730    -0.0405 C.2     
  12 N12            5.4245     3.4961    -0.0294 N.am    
  13 N13            4.0323     3.3799    -0.0176 N.2     
  14 C14            6.1248     4.7055    -0.0296 C.ar    
  15 O15            7.1913     2.0230    -0.0516 O.2     
  16 C16            3.5779    -2.1419    -0.0418 C.3     
  17 C17            3.5557    -2.6370    -1.4650 C.ar    
  18 C18            4.7436    -2.8861    -2.1275 C.ar    
  19 C19            4.7265    -3.3395    -3.4320 C.ar    
  20 C20            3.5150    -3.5456    -4.0780 C.ar    
  21 C21            2.3239    -3.2951    -3.4100 C.ar    
  22 C22            2.3474    -2.8467    -2.1038 C.ar    
  23 N23            3.4944    -4.0053    -5.4021 N.pl3   
  24 C24            2.3896    -4.2462    -6.1438 C.2     
  25 C25            2.7965    -4.6752    -7.3610 C.2     
  26 C26            4.1955    -4.6976    -7.3645 C.2     
  27 N27            4.6147    -4.2906    -6.1933 N.2     
  28 C28            7.0645     4.9876    -1.0206 C.ar    
  29 C29            7.7349     6.1920    -0.9873 C.ar    
  30 N30            7.4983     7.0739    -0.0337 N.ar    
  31 C31            6.6167     6.8466     0.9236 C.ar    
  32 C32            5.8976     5.6633     0.9576 C.ar    
  33 F33            4.9932     5.4386     1.9357 F       
  34 F34            6.4108     7.7809     1.8775 F       
  35 H35           -0.9602     1.9068     0.0170 H       
  36 H36           -0.9288    -0.5516     0.0083 H       
  37 H37            1.2004    -1.7709    -0.0189 H       
  38 H38            1.1506     3.1715     0.0077 H       
  39 H39            5.6983    -0.6536    -0.0522 H       
  40 H40            4.4655    -2.5243     0.4622 H       
  41 H41            2.6859    -2.4911     0.4783 H       
  42 H42            5.6858    -2.7255    -1.6244 H       
  43 H43            5.6547    -3.5331    -3.9492 H       
  44 H44            1.3800    -3.4541    -3.9100 H       
  45 H45            1.4212    -2.6517    -1.5837 H       
  46 H46            1.3664    -4.1196    -5.8223 H       
  47 H47            2.1546    -4.9516    -8.1844 H       
  48 H48            4.8217    -4.9950    -8.1926 H       
  49 H49            7.2648     4.2717    -1.8040 H       
  50 H50            8.4639     6.4169    -1.7517 H       
@<TRIPOS>BOND
   1    1    2 ar
   2    1    6 ar
   3    1   35 1
   4    2    3 ar
   5    2   36 1
   6    3    4 ar
   7    3   37 1
   8    4    5 ar
   9    4    7 1
  10    5    6 ar
  11    5   10 1
  12    6   38 1
  13    7    8 1
  14    7   16 1
  15    8    9 2
  16    8   39 1
  17    9   10 1
  18    9   11 1
  19   10   13 2
  20   11   12 am
  21   11   15 2
  22   12   13 1
  23   12   14 1
  24   14   32 ar
  25   14   28 ar
  26   16   17 1
  27   16   40 1
  28   16   41 1
  29   17   18 ar
  30   17   22 ar
  31   18   19 ar
  32   18   42 1
  33   19   20 ar
  34   19   43 1
  35   20   21 ar
  36   20   23 1
  37   21   22 ar
  38   21   44 1
  39   22   45 1
  40   23   24 1
  41   23   27 1
  42   24   25 2
  43   24   46 1
  44   25   26 1
  45   25   47 1
  46   26   27 2
  47   26   48 1
  48   28   29 ar
  49   28   49 1
  50   29   30 ar
  51   29   50 1
  52   30   31 ar
  53   31   32 ar
  54   31   34 1
  55   32   33 1

#	End of record

