#	Name: ASD01208588
#	Creating user name:	WinNT
#	Creation time:	15. 06. 2019 19:10

#	Modifying user name:	WinNT
#	Modification time:	15. 06. 2019 19:10

#	Program:	/corina/corina34_cracker 3.40 0067  02.08.2006

@<TRIPOS>MOLECULE
ASD01208588
  59   62    0    0    0
SMALL
NO_CHARGES


@<TRIPOS>ATOM
   1 O1             0.2677     1.4820     0.0313 O.3     
   2 C2             0.2849     0.1360     0.0772 C.2     
   3 N3             1.5094    -0.3511     0.1200 N.2     
   4 C4             2.4215     0.6191     0.1068 C.2     
   5 C5             1.6378     1.9150     0.0460 C.3     
   6 O6             3.6300     0.4920     0.1374 O.2     
   7 C7             1.9181     2.7717     1.2823 C.3     
   8 N8            -2.1809    -0.2081     0.0374 N.pl3   
   9 C9            -0.8815    -0.6661     0.0800 C.2     
  10 C10           -0.9189    -2.0502     0.1257 C.2     
  11 C11           -2.2566    -2.4314     0.1104 C.2     
  12 C12           -3.0202    -1.2828     0.0559 C.2     
  13 C13           -4.4964    -1.2271     0.0235 C.ar    
  14 C14           -5.2421    -2.4069     0.0473 C.ar    
  15 C15           -6.6253    -2.3502     0.0168 C.ar    
  16 C16           -7.2704    -1.1227    -0.0380 C.ar    
  17 C17           -6.5333     0.0525    -0.0619 C.ar    
  18 C18           -5.1493     0.0053    -0.0253 C.ar    
  19 O19           -7.1700     1.2519    -0.1159 O.3     
  20 C20           -7.0134     2.0064    -1.2325 C.ar    
  21 C21           -7.7255     3.1928    -1.3779 C.ar    
  22 N22           -6.1776     1.6179    -2.1848 N.ar    
  23 N23           -7.5704     3.9245    -2.4651 N.ar    
  24 C24           -6.7392     3.5311    -3.4155 C.ar    
  25 C25           -6.0267     2.3557    -3.2717 C.ar    
  26 S26           -6.5350     4.5110    -4.8656 S.o2    
  27 O27           -6.1299     3.5822    -5.8619 O.2     
  28 O28           -7.7589     5.2234    -4.9824 O.2     
  29 C29           -5.1762     5.6422    -4.4598 C.3     
  30 O30           -7.3522    -3.4983     0.0400 O.3     
  31 C31           -8.7711    -3.3657     0.1450 C.3     
  32 C32           -9.3336    -4.5330     0.9587 C.3     
  33 C33           -9.3892    -3.3751    -1.2546 C.3     
  34 O34           -9.1194    -5.7549     0.2494 O.3     
  35 C35           -9.6105    -6.9136     0.9264 C.3     
  36 H36            1.8760     2.4647    -0.8646 H       
  37 H37            1.6980     2.1957     2.1811 H       
  38 H38            2.9669     3.0683     1.2886 H       
  39 H39            1.2890     3.6616     1.2579 H       
  40 H40           -2.4527     0.7224     0.0041 H       
  41 H41           -0.0662    -2.7117     0.1657 H       
  42 H42           -2.6306    -3.4442     0.1368 H       
  43 H43           -4.7409    -3.3627     0.0892 H       
  44 H44           -8.3494    -1.0822    -0.0624 H       
  45 H45           -4.5763     0.9206    -0.0394 H       
  46 H46           -8.4047     3.5142    -0.6021 H       
  47 H47           -5.3457     2.0394    -4.0479 H       
  48 H48           -4.2804     5.0659    -4.2286 H       
  49 H49           -4.9794     6.2938    -5.3111 H       
  50 H50           -5.4524     6.2466    -3.5958 H       
  51 H51           -9.0125    -2.4264     0.6425 H       
  52 H52           -8.8288    -4.5797     1.9236 H       
  53 H53          -10.4023    -4.3857     1.1144 H       
  54 H54           -9.1478    -4.3144    -1.7521 H       
  55 H55          -10.4715    -3.2740    -1.1745 H       
  56 H56           -8.9885    -2.5435    -1.8343 H       
  57 H57           -9.1115    -7.0098     1.8907 H       
  58 H58          -10.6850    -6.8158     1.0815 H       
  59 H59           -9.4096    -7.7992     0.3234 H       
@<TRIPOS>BOND
   1    1    2 1
   2    1    5 1
   3    2    3 2
   4    2    9 1
   5    3    4 1
   6    4    5 1
   7    4    6 2
   8    5    7 1
   9    5   36 1
  10    7   37 1
  11    7   38 1
  12    7   39 1
  13    8    9 1
  14    8   12 1
  15    8   40 1
  16    9   10 2
  17   10   11 1
  18   10   41 1
  19   11   12 2
  20   11   42 1
  21   12   13 1
  22   13   14 ar
  23   13   18 ar
  24   14   15 ar
  25   14   43 1
  26   15   16 ar
  27   15   30 1
  28   16   17 ar
  29   16   44 1
  30   17   18 ar
  31   17   19 1
  32   18   45 1
  33   19   20 1
  34   20   21 ar
  35   20   22 ar
  36   21   23 ar
  37   21   46 1
  38   22   25 ar
  39   23   24 ar
  40   24   25 ar
  41   24   26 1
  42   25   47 1
  43   26   27 2
  44   26   28 2
  45   26   29 1
  46   29   48 1
  47   29   49 1
  48   29   50 1
  49   30   31 1
  50   31   32 1
  51   31   33 1
  52   31   51 1
  53   32   34 1
  54   32   52 1
  55   32   53 1
  56   33   54 1
  57   33   55 1
  58   33   56 1
  59   34   35 1
  60   35   57 1
  61   35   58 1
  62   35   59 1

#	End of record

