#	Name: ASD01913877
#	Creating user name:	WinNT
#	Creation time:	15. 06. 2019 20:02

#	Modifying user name:	WinNT
#	Modification time:	15. 06. 2019 20:02

#	Program:	/corina/corina34_cracker 3.40 0067  02.08.2006

@<TRIPOS>MOLECULE
ASD01913877
  42   45    0    0    0
SMALL
NO_CHARGES


@<TRIPOS>ATOM
   1 C1            -0.0183     1.4278    -0.0058 C.ar    
   2 C2             0.0014    -0.0040    -0.0090 C.1     
   3 C3             0.0175    -1.1779    -0.0116 C.1     
   4 C4             0.0372    -2.6098    -0.0148 C.ar    
   5 C5            -1.1570    -3.3387     0.0893 C.ar    
   6 C6             0.1560    -5.3344    -0.0290 C.ar    
   7 N7             1.2657    -4.6186    -0.1311 N.ar    
   8 C8             1.2451    -3.3019    -0.1275 C.ar    
   9 C9            -1.0865    -4.7172     0.0812 C.ar    
  10 C10            1.1755     2.1467    -0.1099 C.ar    
  11 C11            1.1487     3.5256    -0.1061 C.ar    
  12 C12           -1.2320     2.1131     0.0956 C.ar    
  13 C13           -0.0564     4.1973     0.0009 C.ar    
  14 C14           -1.2431     3.4922     0.0981 C.ar    
  15 N15            0.2331    -6.7251    -0.0380 N.am    
  16 C16            0.3819    -7.3701     1.1232 C.2     
  17 O17            0.3136    -8.6979     1.2354 O.3     
  18 C18            0.4832    -9.5298     0.0548 C.3     
  19 C19           -0.2458    -8.8753    -1.1389 C.3     
  20 C20            0.1427    -7.4260    -1.3126 C.3     
  21 O21            0.5900    -6.7154     2.1254 O.2     
  22 C22           -0.3910   -10.7976     0.2913 C.3     
  23 C23           -1.8357   -10.2935     0.0808 C.3     
  24 C24           -1.7375    -9.0527    -0.8300 C.3     
  25 H25            1.5291    -9.7518    -0.1572 H       
  26 H26           -0.0088    -9.4248    -2.0499 H       
  27 H27           -2.1079    -2.8337     0.1740 H       
  28 H28            2.1707    -2.7521    -0.2128 H       
  29 H29           -1.9856    -5.3103     0.1599 H       
  30 H30            2.1168     1.6237    -0.1928 H       
  31 H31            2.0705     4.0825    -0.1865 H       
  32 H32           -2.1589     1.5641     0.1715 H       
  33 H33           -0.0712     5.2772     0.0041 H       
  34 H34           -2.1800     4.0232     0.1810 H       
  35 H35           -0.5992    -6.9331    -1.9410 H       
  36 H36            1.1129    -7.3760    -1.8069 H       
  37 H37           -0.1462   -11.5724    -0.4354 H       
  38 H38           -0.2594   -11.1692     1.3075 H       
  39 H39           -2.4343   -11.0656    -0.4026 H       
  40 H40           -2.2795   -10.0204     1.0381 H       
  41 H41           -2.1208    -8.1742    -0.3108 H       
  42 H42           -2.2951    -9.2181    -1.7518 H       
@<TRIPOS>BOND
   1    1    2 1
   2    1   10 ar
   3    1   12 ar
   4    2    3 3
   5    3    4 1
   6    4    5 ar
   7    4    8 ar
   8    5    9 ar
   9    5   27 1
  10    6    7 ar
  11    6   15 1
  12    6    9 ar
  13    7    8 ar
  14    8   28 1
  15    9   29 1
  16   10   11 ar
  17   10   30 1
  18   11   13 ar
  19   11   31 1
  20   12   14 ar
  21   12   32 1
  22   13   14 ar
  23   13   33 1
  24   14   34 1
  25   15   16 am
  26   15   20 1
  27   16   17 1
  28   16   21 2
  29   17   18 1
  30   18   19 1
  31   18   22 1
  32   18   25 1
  33   19   20 1
  34   19   26 1
  35   19   24 1
  36   20   35 1
  37   20   36 1
  38   22   23 1
  39   22   37 1
  40   22   38 1
  41   23   24 1
  42   23   39 1
  43   23   40 1
  44   24   41 1
  45   24   42 1

#	End of record

