#	Name: ASD02562001
#	Creating user name:	WinNT
#	Creation time:	15. 06. 2019 20:25

#	Modifying user name:	WinNT
#	Modification time:	15. 06. 2019 20:25

#	Program:	/corina/corina34_cracker 3.40 0067  02.08.2006

@<TRIPOS>MOLECULE
ASD02562001
  67   68    0    0    0
SMALL
NO_CHARGES


@<TRIPOS>ATOM
   1 C1            -0.0167     1.3835     0.0096 C.ar    
   2 C2             0.0021    -0.0041     0.0020 C.ar    
   3 C3            -1.1793    -0.7141     0.0100 C.ar    
   4 C4            -2.4040    -0.0432     0.0257 C.ar    
   5 C5            -2.4362     1.3465     0.0335 C.ar    
   6 C6            -1.2418     2.0672     0.0309 C.ar    
   7 C7             1.3187    -0.7371    -0.0155 C.3     
   8 C8            -1.2666     3.5412     0.0396 C.2     
   9 O9            -0.2248     4.1665     0.0373 O.2     
  10 C10           -3.6709    -0.8137     0.0337 C.2     
  11 C11           -4.5977    -0.7287    -1.1207 C.ar    
  12 C12           -3.9779    -1.5860     1.0829 C.2     
  13 C13           -5.2654    -2.3691     1.0910 C.3     
  14 C14           -4.9606    -3.8492     1.3301 C.3     
  15 C15           -6.2677    -4.6443     1.3383 C.3     
  16 C16           -5.9675    -6.1022     1.5738 C.2     
  17 O17           -4.8252    -6.4678     1.7201 O.2     
  18 C18           -5.8654    -0.1661    -0.9577 C.ar    
  19 C19           -6.7319    -0.0839    -2.0265 C.ar    
  20 C20           -6.3507    -0.5599    -3.2731 C.ar    
  21 C21           -5.0793    -1.1269    -3.4475 C.ar    
  22 C22           -4.2019    -1.2039    -2.3656 C.ar    
  23 C23           -8.0980     0.5245    -1.8406 C.3     
  24 C24           -4.6700    -1.6339    -4.7699 C.2     
  25 O25           -5.4343    -1.5612    -5.7117 O.2     
  26 O26            1.1480     2.0780     0.0023 O.3     
  27 C27            1.6931     2.4171    -1.2745 C.3     
  28 O28           -2.4448     4.1951     0.0501 O.3     
  29 C29           -2.3933     5.6462     0.0582 C.3     
  30 O30           -6.9691    -6.9946     1.6211 O.3     
  31 C31           -6.6060    -8.3814     1.8515 C.3     
  32 O32           -3.4482    -2.1780    -4.9343 O.3     
  33 C33           -3.1131    -2.6563    -6.2637 C.3     
  34 O34           -7.2066    -0.4774    -4.3218 O.3     
  35 C35           -7.1457     0.7082    -5.1172 C.3     
  36 H36           -1.1578    -1.7939     0.0036 H       
  37 H37           -3.3828     1.8664     0.0454 H       
  38 H38            1.6467    -0.9194     1.0078 H       
  39 H39            1.1978    -1.6887    -0.5332 H       
  40 H40            2.0637    -0.1335    -0.5338 H       
  41 H41           -3.3028    -1.6479     1.9237 H       
  42 H42           -5.9113    -1.9980     1.8867 H       
  43 H43           -5.7679    -2.2521     0.1308 H       
  44 H44           -4.3146    -4.2203     0.5344 H       
  45 H45           -4.4581    -3.9662     2.2903 H       
  46 H46           -6.9137    -4.2732     2.1340 H       
  47 H47           -6.7702    -4.5273     0.3782 H       
  48 H48           -6.1683     0.2059     0.0099 H       
  49 H49           -3.2217    -1.6392    -2.4928 H       
  50 H50           -8.0477     1.5963    -2.0325 H       
  51 H51           -8.7989     0.0633    -2.5365 H       
  52 H52           -8.4357     0.3539    -0.8184 H       
  53 H53            0.9805     3.0345    -1.8214 H       
  54 H54            2.6226     2.9698    -1.1375 H       
  55 H55            1.8920     1.5057    -1.8383 H       
  56 H56           -1.8618     5.9859     0.9472 H       
  57 H57           -1.8720     5.9962    -0.8327 H       
  58 H58           -3.4074     6.0457     0.0663 H       
  59 H59           -5.9476    -8.7222     1.0524 H       
  60 H60           -6.0911    -8.4681     2.8083 H       
  61 H61           -7.5067    -8.9951     1.8667 H       
  62 H62           -3.8207    -3.4304    -6.5604 H       
  63 H63           -3.1625    -1.8284    -6.9709 H       
  64 H64           -2.1043    -3.0692    -6.2576 H       
  65 H65           -7.8804     0.6454    -5.9199 H       
  66 H66           -7.3620     1.5756    -4.4936 H       
  67 H67           -6.1480     0.8079    -5.5449 H       
@<TRIPOS>BOND
   1    1    2 ar
   2    1   26 1
   3    1    6 ar
   4    2    3 ar
   5    2    7 1
   6    3    4 ar
   7    3   36 1
   8    4    5 ar
   9    4   10 1
  10    5    6 ar
  11    5   37 1
  12    6    8 1
  13    7   38 1
  14    7   39 1
  15    7   40 1
  16    8    9 2
  17    8   28 1
  18   10   11 1
  19   10   12 2
  20   11   18 ar
  21   11   22 ar
  22   12   13 1
  23   12   41 1
  24   13   14 1
  25   13   42 1
  26   13   43 1
  27   14   15 1
  28   14   44 1
  29   14   45 1
  30   15   16 1
  31   15   46 1
  32   15   47 1
  33   16   17 2
  34   16   30 1
  35   18   19 ar
  36   18   48 1
  37   19   20 ar
  38   19   23 1
  39   20   21 ar
  40   20   34 1
  41   21   22 ar
  42   21   24 1
  43   22   49 1
  44   23   50 1
  45   23   51 1
  46   23   52 1
  47   24   25 2
  48   24   32 1
  49   26   27 1
  50   27   53 1
  51   27   54 1
  52   27   55 1
  53   28   29 1
  54   29   56 1
  55   29   57 1
  56   29   58 1
  57   30   31 1
  58   31   59 1
  59   31   60 1
  60   31   61 1
  61   32   33 1
  62   33   62 1
  63   33   63 1
  64   33   64 1
  65   34   35 1
  66   35   65 1
  67   35   66 1
  68   35   67 1

#	End of record

