#	Name: ASD03430558
#	Creating user name:	WinNT
#	Creation time:	15. 06. 2019 20:41

#	Modifying user name:	WinNT
#	Modification time:	15. 06. 2019 20:41

#	Program:	/corina/corina34_cracker 3.40 0067  02.08.2006

@<TRIPOS>MOLECULE
ASD03430558
  46   49    0    0    0
SMALL
NO_CHARGES


@<TRIPOS>ATOM
   1 C1             0.0021    -0.0041     0.0020 C.1     
   2 C2            -0.0173     1.4278     0.0099 C.ar    
   3 C3             1.1843     2.1468     0.0023 C.ar    
   4 C4             1.1590     3.5267     0.0100 C.ar    
   5 C5            -0.0554     4.2003     0.0252 C.ar    
   6 C6            -1.2499     3.4894     0.0328 C.ar    
   7 C7            -1.2358     2.1125     0.0194 C.ar    
   8 N8             0.0175    -1.1399    -0.0042 N.1     
   9 N9            -4.5298     3.2883    -0.6898 N.am    
  10 C10           -3.4004     3.8492    -1.1538 C.2     
  11 C11           -2.5637     4.2275     0.0499 C.3     
  12 C12           -3.4006     3.7918     1.2306 C.ar    
  13 C13           -3.2042     3.8554     2.5918 C.ar    
  14 C14           -4.1709     3.3650     3.4522 C.ar    
  15 C15           -5.3310     2.8126     2.9405 C.ar    
  16 C16           -5.5302     2.7477     1.5771 C.ar    
  17 C17           -4.5613     3.2395     0.7043 C.ar    
  18 O18           -3.1063     4.0199    -2.3180 O.2     
  19 C19           -5.6072     2.7908    -1.5489 C.3     
  20 C20           -5.3574     1.3420    -1.8799 C.ar    
  21 C21           -5.8646     0.3497    -1.0614 C.ar    
  22 C22           -5.6370    -0.9792    -1.3627 C.ar    
  23 C23           -4.8988    -1.3177    -2.4874 C.ar    
  24 C24           -4.3909    -0.3201    -3.3070 C.ar    
  25 C25           -4.6261     1.0071    -3.0045 C.ar    
  26 O26           -4.6731    -2.6242    -2.7857 O.3     
  27 C27           -3.9050    -2.8985    -3.9590 C.3     
  28 O28           -0.0759     5.5576     0.0332 O.3     
  29 F29            2.3655     1.4913    -0.0121 F       
  30 H30            2.0845     4.0833     0.0045 H       
  31 H31           -2.1651     1.5623     0.0204 H       
  32 H32           -2.3955     5.3042     0.0749 H       
  33 H33           -2.2969     4.2872     2.9876 H       
  34 H34           -4.0196     3.4132     4.5205 H       
  35 H35           -6.0851     2.4297     3.6121 H       
  36 H36           -6.4387     2.3149     1.1852 H       
  37 H37           -6.5601     2.8855    -1.0282 H       
  38 H38           -5.6366     3.3739    -2.4693 H       
  39 H39           -6.4389     0.6137    -0.1857 H       
  40 H40           -6.0331    -1.7539    -0.7229 H       
  41 H41           -3.8159    -0.5811    -4.1832 H       
  42 H42           -4.2350     1.7840    -3.6448 H       
  43 H43           -2.9183    -2.4457    -3.8614 H       
  44 H44           -3.7996    -3.9766    -4.0805 H       
  45 H45           -4.4111    -2.4824    -4.8301 H       
  46 H46           -0.0901     5.9560    -0.8478 H       
@<TRIPOS>BOND
   1    1    2 1
   2    1    8 3
   3    2    3 ar
   4    2    7 ar
   5    3    4 ar
   6    3   29 1
   7    4    5 ar
   8    4   30 1
   9    5    6 ar
  10    5   28 1
  11    6    7 ar
  12    6   11 1
  13    7   31 1
  14    9   10 am
  15    9   17 1
  16    9   19 1
  17   10   11 1
  18   10   18 2
  19   11   12 1
  20   11   32 1
  21   12   13 ar
  22   12   17 ar
  23   13   14 ar
  24   13   33 1
  25   14   15 ar
  26   14   34 1
  27   15   16 ar
  28   15   35 1
  29   16   17 ar
  30   16   36 1
  31   19   20 1
  32   19   37 1
  33   19   38 1
  34   20   21 ar
  35   20   25 ar
  36   21   22 ar
  37   21   39 1
  38   22   23 ar
  39   22   40 1
  40   23   24 ar
  41   23   26 1
  42   24   25 ar
  43   24   41 1
  44   25   42 1
  45   26   27 1
  46   27   43 1
  47   27   44 1
  48   27   45 1
  49   28   46 1

#	End of record

