#	Name: ASD02560502
#	Creating user name:	WinNT
#	Creation time:	15. 06. 2019 20:25

#	Modifying user name:	WinNT
#	Modification time:	15. 06. 2019 20:25

#	Program:	/corina/corina34_cracker 3.40 0067  02.08.2006

@<TRIPOS>MOLECULE
ASD02560502
  43   46    0    0    0
SMALL
NO_CHARGES


@<TRIPOS>ATOM
   1 C1             0.0913     0.9090     1.0835 C.2     
   2 C2             0.2587    -0.4874     1.0944 C.2     
   3 C3             1.4525    -1.0328     0.7872 C.2     
   4 N4             2.5184    -0.2380     0.4605 N.pl3   
   5 C5             2.3847     1.1316     0.4413 C.2     
   6 C6             1.1392     1.7127     0.7613 C.2     
   7 C7             3.8098    -0.5257     0.1153 C.2     
   8 C8             4.4411     0.6798    -0.1085 C.2     
   9 N9             3.5464     1.6635     0.0985 N.2     
  10 C10            5.8568     0.8604    -0.5068 C.ar    
  11 N11            4.3795    -1.7950     0.0103 N.3     
  12 C12            3.3597    -2.8430     0.1503 C.3     
  13 C13            6.8655     0.1670     0.1606 C.ar    
  14 C14            3.8374    -4.1376    -0.5306 C.3     
  15 C15            8.1825     0.3392    -0.2148 C.ar    
  16 C16            8.5032     1.1981    -1.2506 C.ar    
  17 C17            7.5073     1.8895    -1.9173 C.ar    
  18 C18            6.1855     1.7211    -1.5554 C.ar    
  19 Cl19           4.9368     2.5891    -2.3926 Cl      
  20 C20            3.9013    -5.2166     0.5700 C.3     
  21 C21            2.9174    -4.7118     1.6546 C.3     
  22 C22            3.1500    -3.1805     1.6409 C.3     
  23 C23            0.9722     3.2103     0.7456 C.3     
  24 H24           -0.8682     1.3413     1.3260 H       
  25 H25           -0.5736    -1.1261     1.3506 H       
  26 H26            1.5694    -2.1064     0.7992 H       
  27 H27            4.8833    -1.8944    -0.8583 H       
  28 H28            2.4210    -2.5119    -0.2939 H       
  29 H29            6.6170    -0.5035     0.9700 H       
  30 H30            3.1300    -4.4352    -1.3046 H       
  31 H31            4.8259    -3.9882    -0.9649 H       
  32 H32            8.9645    -0.1975     0.3017 H       
  33 H33            9.5354     1.3298    -1.5398 H       
  34 H34            7.7639     2.5587    -2.7252 H       
  35 H35            3.5759    -6.1805     0.1787 H       
  36 H36            4.9107    -5.2893     0.9748 H       
  37 H37            1.8887    -4.9486     1.3833 H       
  38 H38            3.1676    -5.1318     2.6288 H       
  39 H39            4.0382    -2.9244     2.2186 H       
  40 H40            2.2764    -2.6584     2.0311 H       
  41 H41            0.6585     3.5305    -0.2479 H       
  42 H42            0.2164     3.4993     1.4760 H       
  43 H43            1.9208     3.6843     0.9976 H       
@<TRIPOS>BOND
   1    1    2 1
   2    1    6 2
   3    1   24 1
   4    2    3 2
   5    2   25 1
   6    3    4 1
   7    3   26 1
   8    4    5 1
   9    4    7 1
  10    5    6 1
  11    5    9 2
  12    6   23 1
  13    7    8 2
  14    7   11 1
  15    8    9 1
  16    8   10 1
  17   10   13 ar
  18   10   18 ar
  19   11   12 1
  20   11   27 1
  21   12   14 1
  22   12   22 1
  23   12   28 1
  24   13   15 ar
  25   13   29 1
  26   14   20 1
  27   14   30 1
  28   14   31 1
  29   15   16 ar
  30   15   32 1
  31   16   17 ar
  32   16   33 1
  33   17   18 ar
  34   17   34 1
  35   18   19 1
  36   20   21 1
  37   20   35 1
  38   20   36 1
  39   21   22 1
  40   21   37 1
  41   21   38 1
  42   22   39 1
  43   22   40 1
  44   23   41 1
  45   23   42 1
  46   23   43 1

#	End of record

