#	Name: ASD01140018
#	Creating user name:	WinNT
#	Creation time:	15. 06. 2019 18:59

#	Modifying user name:	WinNT
#	Modification time:	15. 06. 2019 18:59

#	Program:	/corina/corina34_cracker 3.40 0067  02.08.2006

@<TRIPOS>MOLECULE
ASD01140018
  45   48    0    0    0
SMALL
NO_CHARGES


@<TRIPOS>ATOM
   1 C1            -0.0167     1.3780     0.0096 C.ar    
   2 C2             0.0021    -0.0041     0.0020 C.ar    
   3 C3             1.2096    -0.6718    -0.0185 C.ar    
   4 C4             2.4047     0.0339    -0.0318 C.ar    
   5 C5             2.3879     1.4108    -0.0132 C.ar    
   6 C6             1.1707     2.0804     0.0021 C.ar    
   7 C7             3.6882    -0.7564    -0.0817 C.3     
   8 N8             4.8257     0.1314     0.1813 N.am    
   9 C9             4.8377     1.4361    -0.5006 C.3     
  10 C10            3.6431     2.2426     0.0062 C.3     
  11 H11            3.6596    -1.5425     0.6728 H       
  12 C12            3.8442    -1.3870    -1.4670 C.3     
  13 C13            5.1263    -2.1834    -1.5347 C.2     
  14 C14            5.8729    -1.6355    -2.4901 C.2     
  15 C15            5.1586    -0.4996    -3.0789 C.2     
  16 O16            3.9625    -0.3487    -2.4798 O.3     
  17 O17            5.5833     0.2028    -3.9752 O.2     
  18 H18            2.9912    -2.0297    -1.6847 H       
  19 C19            5.8204    -0.2326     1.0147 C.2     
  20 O20            6.8521     0.6033     1.2371 O.3     
  21 O21            5.7860    -1.3153     1.5653 O.2     
  22 C22            7.8874     0.1453     2.1463 C.3     
  23 C23            8.9514     1.2052     2.2709 C.ar    
  24 C24            8.8471     2.1778     3.2476 C.ar    
  25 C25            9.8230     3.1501     3.3619 C.ar    
  26 C26           10.9036     3.1495     2.4998 C.ar    
  27 C27           11.0084     2.1763     1.5236 C.ar    
  28 C28           10.0347     1.2015     1.4121 C.ar    
  29 H29           -0.9584     1.9066     0.0170 H       
  30 H30           -0.9244    -0.5590     0.0125 H       
  31 H31            1.2248    -1.7517    -0.0240 H       
  32 H32            1.1538     3.1602     0.0080 H       
  33 H33            5.7632     1.9639    -0.2703 H       
  34 H34            4.7539     1.2901    -1.5775 H       
  35 H35            3.5041     3.1162    -0.6308 H       
  36 H36            3.8395     2.5716     1.0266 H       
  37 H37            5.3874    -3.0348    -0.9237 H       
  38 H38            6.8545    -1.9753    -2.7857 H       
  39 H39            7.4509    -0.0483     3.1261 H       
  40 H40            8.3316    -0.7716     1.7589 H       
  41 H41            8.0029     2.1783     3.9212 H       
  42 H42            9.7411     3.9104     4.1245 H       
  43 H43           11.6657     3.9096     2.5886 H       
  44 H44           11.8524     2.1760     0.8498 H       
  45 H45           10.1166     0.4412     0.6495 H       
@<TRIPOS>BOND
   1    1    2 ar
   2    1    6 ar
   3    1   29 1
   4    2    3 ar
   5    2   30 1
   6    3    4 ar
   7    3   31 1
   8    4    5 ar
   9    4    7 1
  10    5    6 ar
  11    5   10 1
  12    6   32 1
  13    7    8 1
  14    7   11 1
  15    7   12 1
  16    8    9 1
  17    8   19 am
  18    9   10 1
  19    9   33 1
  20    9   34 1
  21   10   35 1
  22   10   36 1
  23   12   13 1
  24   12   18 1
  25   12   16 1
  26   13   14 2
  27   13   37 1
  28   14   15 1
  29   14   38 1
  30   15   16 1
  31   15   17 2
  32   19   20 1
  33   19   21 2
  34   20   22 1
  35   22   23 1
  36   22   39 1
  37   22   40 1
  38   23   24 ar
  39   23   28 ar
  40   24   25 ar
  41   24   41 1
  42   25   26 ar
  43   25   42 1
  44   26   27 ar
  45   26   43 1
  46   27   28 ar
  47   27   44 1
  48   28   45 1

#	End of record

