#	Name: ASD01420216
#	Creating user name:	WinNT
#	Creation time:	15. 06. 2019 19:20

#	Modifying user name:	WinNT
#	Modification time:	15. 06. 2019 19:20

#	Program:	/corina/corina34_cracker 3.40 0067  02.08.2006

@<TRIPOS>MOLECULE
ASD01420216
  39   42    0    0    0
SMALL
NO_CHARGES


@<TRIPOS>ATOM
   1 C1            -0.0168     1.3904     0.0097 C.ar    
   2 C2             0.0021    -0.0041     0.0020 C.ar    
   3 C3             1.2369    -0.6811    -0.0134 C.ar    
   4 C4             2.4269     0.0373    -0.0209 C.ar    
   5 C5             2.4047     1.4020    -0.0134 C.ar    
   6 C6             1.1854     2.0927     0.0020 C.ar    
   7 N7            -0.9722    -0.9479     0.0058 N.2     
   8 C8            -0.4279    -2.1401    -0.0061 C.2     
   9 N9             0.9371    -2.0269    -0.0182 N.pl3   
  10 C10           -1.1746    -3.4150    -0.0063 C.2     
  11 C11           -2.5818    -3.5542     0.0057 C.2     
  12 C12           -2.8660    -4.8795     0.0002 C.2     
  13 N13           -1.6886    -5.5581    -0.0147 N.pl3   
  14 N14           -0.6460    -4.6230    -0.0234 N.2     
  15 N15           -3.5172    -2.5070     0.0209 N.am    
  16 C16           -4.8365    -2.7820     0.0312 C.2     
  17 O17           -5.2170    -3.9370     0.0272 O.2     
  18 C18           -5.8192    -1.6818     0.0473 C.ar    
  19 C19           -6.2768    -1.1649     1.2642 C.ar    
  20 C20           -7.1972    -0.1338     1.2700 C.ar    
  21 C21           -7.6661     0.3867     0.0774 C.ar    
  22 C22           -7.2191    -0.1183    -1.1301 C.ar    
  23 C23           -6.2945    -1.1454    -1.1543 C.ar    
  24 F24           -5.8588    -1.6369    -2.3349 F       
  25 F25           -5.8208    -1.6725     2.4302 F       
  26 C26            1.1757     3.5680     0.0100 C.2     
  27 O27            0.1196     4.1685     0.0233 O.2     
  28 O28            2.3380     4.2495     0.0026 O.3     
  29 H29           -0.9571     1.9217     0.0170 H       
  30 H30            3.3717    -0.4858    -0.0324 H       
  31 H31            3.3333     1.9534    -0.0189 H       
  32 H32            1.5746    -2.7580    -0.0286 H       
  33 H33           -3.8528    -5.3183     0.0068 H       
  34 H34           -1.5879    -6.5228    -0.0215 H       
  35 H35           -3.2137    -1.5857     0.0241 H       
  36 H36           -7.5516     0.2664     2.2084 H       
  37 H37           -8.3858     1.1919     0.0892 H       
  38 H38           -7.5904     0.2940    -2.0567 H       
  39 H39            2.2810     5.2148     0.0083 H       
@<TRIPOS>BOND
   1    1    2 ar
   2    1    6 ar
   3    1   29 1
   4    2    3 ar
   5    2    7 1
   6    3    4 ar
   7    3    9 1
   8    4    5 ar
   9    4   30 1
  10    5    6 ar
  11    5   31 1
  12    6   26 1
  13    7    8 2
  14    8    9 1
  15    8   10 1
  16    9   32 1
  17   10   11 1
  18   10   14 2
  19   11   12 2
  20   11   15 1
  21   12   13 1
  22   12   33 1
  23   13   14 1
  24   13   34 1
  25   15   16 am
  26   15   35 1
  27   16   18 1
  28   16   17 2
  29   18   19 ar
  30   18   23 ar
  31   19   20 ar
  32   19   25 1
  33   20   21 ar
  34   20   36 1
  35   21   22 ar
  36   21   37 1
  37   22   23 ar
  38   22   38 1
  39   23   24 1
  40   26   27 2
  41   26   28 1
  42   28   39 1

#	End of record

