#	Name: ASD03900001
#	Creating user name:	WinNT
#	Creation time:	15. 06. 2019 20:47

#	Modifying user name:	WinNT
#	Modification time:	15. 06. 2019 20:47

#	Program:	/corina/corina34_cracker 3.40 0067  02.08.2006

@<TRIPOS>MOLECULE
ASD03900001
  56   58    0    0    0
SMALL
NO_CHARGES


@<TRIPOS>ATOM
   1 C1             0.0174     1.4862     0.0837 C.3     
   2 C2            -0.0248    -0.0034     0.3085 C.ar    
   3 C3             1.4470     1.9262    -0.0999 C.ar    
   4 C4            -0.7766     1.8306    -1.1500 C.ar    
   5 C5            -0.5851     2.2019     1.2943 C.3     
   6 C6            -1.2389    -0.6402     0.4878 C.ar    
   7 C7            -1.2801    -2.0055     0.6945 C.ar    
   8 C8            -0.1021    -2.7377     0.7217 C.ar    
   9 C9             1.1148    -2.0964     0.5411 C.ar    
  10 C10            1.1503    -0.7317     0.3295 C.ar    
  11 C11            2.1528     1.5293    -1.2206 C.ar    
  12 C12            3.4635     1.9310    -1.3910 C.ar    
  13 C13            4.0714     2.7337    -0.4366 C.ar    
  14 C14            3.3609     3.1309     0.6868 C.ar    
  15 C15            2.0488     2.7308     0.8500 C.ar    
  16 C16           -1.0156     3.1545    -1.4696 C.ar    
  17 C17           -1.7436     3.4728    -2.5997 C.ar    
  18 C18           -2.2345     2.4630    -3.4144 C.ar    
  19 C19           -1.9929     1.1355    -3.0918 C.ar    
  20 C20           -1.2600     0.8225    -1.9634 C.ar    
  21 O21           -2.9514     2.7737    -4.5267 O.3     
  22 C22           -2.2939     3.3860    -5.5244 C.2     
  23 C23           -3.0452     3.8643    -6.7400 C.3     
  24 O24           -1.0997     3.5535    -5.4476 O.2     
  25 O25           -0.1400    -4.0810     0.9253 O.3     
  26 C26           -0.5343    -4.8432    -0.1073 C.2     
  27 O27           -0.7456    -4.3386    -1.1846 O.2     
  28 C28           -0.7134    -6.3281     0.0774 C.3     
  29 O29            5.3611     3.1299    -0.6017 O.3     
  30 C30            5.5893     4.1057    -1.4952 C.2     
  31 C31            6.9760     4.6747    -1.6518 C.3     
  32 O32            4.6830     4.5276    -2.1738 O.2     
  33 H33           -0.0109     1.9527     2.1866 H       
  34 H34           -0.5547     3.2793     1.1317 H       
  35 H35           -1.6191     1.8836     1.4271 H       
  36 H36           -2.1557    -0.0698     0.4665 H       
  37 H37           -2.2287    -2.5024     0.8352 H       
  38 H38            2.0333    -2.6642     0.5622 H       
  39 H39            2.0974    -0.2321     0.1886 H       
  40 H40            1.6791     0.9045    -1.9633 H       
  41 H41            4.0146     1.6202    -2.2662 H       
  42 H42            3.8320     3.7555     1.4314 H       
  43 H43            1.4951     3.0401     1.7242 H       
  44 H44           -0.6332     3.9402    -0.8350 H       
  45 H45           -1.9306     4.5070    -2.8485 H       
  46 H46           -2.3744     0.3476    -3.7243 H       
  47 H47           -1.0714    -0.2108    -1.7121 H       
  48 H48           -4.1033     3.6268    -6.6299 H       
  49 H49           -2.9235     4.9427    -6.8413 H       
  50 H50           -2.6522     3.3693    -7.6281 H       
  51 H51           -0.4786    -6.5971     1.1072 H       
  52 H52           -1.7458    -6.5997    -0.1428 H       
  53 H53           -0.0453    -6.8615    -0.5988 H       
  54 H54            7.6545     4.1735    -0.9615 H       
  55 H55            7.3188     4.5200    -2.6748 H       
  56 H56            6.9575     5.7422    -1.4323 H       
@<TRIPOS>BOND
   1    1    2 1
   2    1    3 1
   3    1    4 1
   4    1    5 1
   5    2    6 ar
   6    2   10 ar
   7    3   11 ar
   8    3   15 ar
   9    4   16 ar
  10    4   20 ar
  11    5   33 1
  12    5   34 1
  13    5   35 1
  14    6    7 ar
  15    6   36 1
  16    7    8 ar
  17    7   37 1
  18    8    9 ar
  19    8   25 1
  20    9   10 ar
  21    9   38 1
  22   10   39 1
  23   11   12 ar
  24   11   40 1
  25   12   13 ar
  26   12   41 1
  27   13   14 ar
  28   13   29 1
  29   14   15 ar
  30   14   42 1
  31   15   43 1
  32   16   17 ar
  33   16   44 1
  34   17   18 ar
  35   17   45 1
  36   18   19 ar
  37   18   21 1
  38   19   20 ar
  39   19   46 1
  40   20   47 1
  41   21   22 1
  42   22   23 1
  43   22   24 2
  44   23   48 1
  45   23   49 1
  46   23   50 1
  47   25   26 1
  48   26   27 2
  49   26   28 1
  50   28   51 1
  51   28   52 1
  52   28   53 1
  53   29   30 1
  54   30   31 1
  55   30   32 2
  56   31   54 1
  57   31   55 1
  58   31   56 1

#	End of record

