#	Name: ASD08150619
#	Creating user name:	WinNT
#	Creation time:	15. 06. 2019 21:16

#	Modifying user name:	WinNT
#	Modification time:	15. 06. 2019 21:16

#	Program:	/corina/corina34_cracker 3.40 0067  02.08.2006

@<TRIPOS>MOLECULE
ASD08150619
  84   91    0    0    0
SMALL
NO_CHARGES


@<TRIPOS>ATOM
   1 N1             1.0405     1.7544     1.9185 N.am    
   2 C2             2.1221     2.3391     1.3681 C.2     
   3 C3             3.4184     1.8466     1.6212 C.2     
   4 C4             3.5944     0.7694     2.4282 C.2     
   5 C5             2.4587     0.1521     3.0093 C.ar    
   6 C6             2.5854    -0.9673     3.8539 C.ar    
   7 N7             1.5358    -1.5348     4.3886 N.ar    
   8 C8             0.2892    -1.0904     4.1682 C.ar    
   9 C9             0.0673     0.0311     3.3316 C.ar    
  10 C10            1.1820     0.6675     2.7367 C.ar    
  11 C11           -1.2358     0.4858     3.1075 C.ar    
  12 C12           -2.2994    -0.1682     3.7084 C.ar    
  13 C13           -2.0718    -1.2771     4.5354 C.ar    
  14 C14           -0.8102    -1.7310     4.7629 C.ar    
  15 O15            1.9779     3.3072     0.6410 O.2     
  16 C16           -3.6847     0.3075     3.4760 C.ar    
  17 C17           -0.2370     2.2663     1.6557 C.ar    
  18 C18           -0.7801     3.2383     2.4864 C.ar    
  19 C19           -2.0384     3.7426     2.2277 C.ar    
  20 C20           -2.7620     3.2781     1.1363 C.ar    
  21 C21           -2.2189     2.3062     0.3058 C.ar    
  22 C22           -0.9579     1.8060     0.5616 C.ar    
  23 N23           -4.0369     3.7885     0.8744 N.3     
  24 C24           -3.9128     1.5278     2.8202 C.ar    
  25 C25           -3.9819     4.8443    -0.1455 C.3     
  26 C26           -5.4078     5.2491    -0.5343 C.3     
  27 N27           -5.1244     1.9719     2.6013 N.ar    
  28 C28           -6.2046     1.2866     2.9908 C.ar    
  29 C29           -6.0570     0.0451     3.6593 C.ar    
  30 C30           -4.7650    -0.4530     3.9000 C.ar    
  31 C31           -7.4981     1.7803     2.7471 C.ar    
  32 C32           -8.5826     1.0653     3.1531 C.ar    
  33 C33           -8.4353    -0.1546     3.8105 C.ar    
  34 C34           -7.1995    -0.6657     4.0646 C.ar    
  35 N35           -6.1427     5.6041     0.6893 N.am    
  36 C36           -6.1285     4.6522     1.8104 C.3     
  37 C37           -4.6742     4.2709     2.1069 C.3     
  38 C38           -6.8118     6.7705     0.7805 C.2     
  39 N39           -7.1588     7.4376    -0.3379 N.am    
  40 O40           -7.1022     7.2210     1.8719 O.2     
  41 C41           -7.0072     6.8189    -1.6636 C.3     
  42 C42           -8.3355     6.9495    -2.4166 C.3     
  43 N43           -8.7491     8.3590    -2.4325 N.3     
  44 C44           -9.0003     8.8560    -1.0732 C.3     
  45 C45           -7.7050     8.8013    -0.2648 C.3     
  46 C46           -9.9263     8.5525    -3.2897 C.3     
  47 C47           -3.0038     1.8019    -0.8776 C.3     
  48 F48           -2.3171     0.7388    -1.4739 F       
  49 F49           -4.2617     1.3634    -0.4503 F       
  50 F50           -3.1612     2.8353    -1.8074 F       
  51 H51            4.2743     2.3276     1.1712 H       
  52 H52            4.5856     0.3880     2.6244 H       
  53 H53            3.5675    -1.3646     4.0637 H       
  54 H54           -1.4120     1.3404     2.4711 H       
  55 H55           -2.9096    -1.7776     4.9980 H       
  56 H56           -0.6532    -2.5869     5.4026 H       
  57 H57           -0.2177     3.5991     3.3349 H       
  58 H58           -2.4607     4.4980     2.8737 H       
  59 H59           -0.5337     1.0535    -0.0866 H       
  60 H60           -3.0685     2.1141     2.4889 H       
  61 H61           -3.4545     5.7100     0.2551 H       
  62 H62           -3.4565     4.4730    -1.0254 H       
  63 H63           -5.3747     6.1086    -1.2039 H       
  64 H64           -5.9032     4.4142    -1.0298 H       
  65 H65           -4.6174    -1.3952     4.4067 H       
  66 H66           -7.6308     2.7243     2.2396 H       
  67 H67           -9.5738     1.4499     2.9630 H       
  68 H68           -9.3128    -0.7014     4.1226 H       
  69 H69           -7.0976    -1.6123     4.5746 H       
  70 H70           -6.5720     5.1170     2.6910 H       
  71 H71           -6.6932     3.7599     1.5403 H       
  72 H72           -4.6510     3.4838     2.8605 H       
  73 H73           -4.1372     5.1446     2.4762 H       
  74 H74           -6.2202     7.3298    -2.2183 H       
  75 H75           -6.7534     5.7651    -1.5490 H       
  76 H76           -8.2098     6.5957    -3.4399 H       
  77 H77           -9.0976     6.3524    -1.9158 H       
  78 H78           -9.3567     9.8849    -1.1222 H       
  79 H79           -9.7531     8.2324    -0.5912 H       
  80 H80           -7.9104     9.0599     0.7740 H       
  81 H81           -6.9822     9.5017    -0.6834 H       
  82 H82          -10.7529     7.9499    -2.9132 H       
  83 H83          -10.2113     9.6046    -3.2834 H       
  84 H84           -9.6882     8.2466    -4.3084 H       
@<TRIPOS>BOND
   1    1    2 am
   2    1   10 1
   3    1   17 1
   4    2    3 1
   5    2   15 2
   6    3    4 2
   7    3   51 1
   8    4    5 1
   9    4   52 1
  10    5    6 ar
  11    5   10 ar
  12    6    7 ar
  13    6   53 1
  14    7    8 ar
  15    8    9 ar
  16    8   14 ar
  17    9   10 ar
  18    9   11 ar
  19   11   12 ar
  20   11   54 1
  21   12   13 ar
  22   12   16 1
  23   13   14 ar
  24   13   55 1
  25   14   56 1
  26   16   24 ar
  27   16   30 ar
  28   17   18 ar
  29   17   22 ar
  30   18   19 ar
  31   18   57 1
  32   19   20 ar
  33   19   58 1
  34   20   21 ar
  35   20   23 1
  36   21   22 ar
  37   21   47 1
  38   22   59 1
  39   23   25 1
  40   23   37 1
  41   24   27 ar
  42   24   60 1
  43   25   26 1
  44   25   61 1
  45   25   62 1
  46   26   35 1
  47   26   63 1
  48   26   64 1
  49   27   28 ar
  50   28   29 ar
  51   28   31 ar
  52   29   30 ar
  53   29   34 ar
  54   30   65 1
  55   31   32 ar
  56   31   66 1
  57   32   33 ar
  58   32   67 1
  59   33   34 ar
  60   33   68 1
  61   34   69 1
  62   35   36 1
  63   35   38 am
  64   36   37 1
  65   36   70 1
  66   36   71 1
  67   37   72 1
  68   37   73 1
  69   38   39 am
  70   38   40 2
  71   39   41 1
  72   39   45 1
  73   41   42 1
  74   41   74 1
  75   41   75 1
  76   42   43 1
  77   42   76 1
  78   42   77 1
  79   43   44 1
  80   43   46 1
  81   44   45 1
  82   44   78 1
  83   44   79 1
  84   45   80 1
  85   45   81 1
  86   46   82 1
  87   46   83 1
  88   46   84 1
  89   47   48 1
  90   47   49 1
  91   47   50 1

#	End of record

