#	Name: ASD03330946
#	Creating user name:	WinNT
#	Creation time:	15. 06. 2019 20:38

#	Modifying user name:	WinNT
#	Modification time:	15. 06. 2019 20:38

#	Program:	/corina/corina34_cracker 3.40 0067  02.08.2006

@<TRIPOS>MOLECULE
ASD03330946
  68   71    0    0    0
SMALL
NO_CHARGES


@<TRIPOS>ATOM
   1 N1            -0.6739     1.6091    -0.4044 N.pl3   
   2 C2            -0.5561     0.2832    -0.1278 C.2     
   3 C3             0.7248    -0.4312     0.2162 C.3     
   4 N4             1.4504     0.3437     1.2349 N.3     
   5 C5             2.3387     1.3302     0.6174 C.3     
   6 C6             1.7382     1.8709    -0.6771 C.3     
   7 C7             0.4182     2.5862    -0.3771 C.3     
   8 C8            -1.9850     1.8510    -0.6952 C.2     
   9 N9            -2.6527     0.7265    -0.5854 N.2     
  10 C10           -1.8000    -0.2607    -0.2335 C.2     
  11 C11           -2.1528    -1.6731    -0.0055 C.2     
  12 O12           -1.2912    -2.4720     0.3088 O.2     
  13 N13           -3.4301    -2.0797    -0.1452 N.am    
  14 C14            2.1954    -0.5427     2.1388 C.3     
  15 C15           -5.0311    -3.8202    -0.6897 C.2     
  16 C16           -3.7809    -3.4839     0.0816 C.3     
  17 C17           -4.0251    -3.7139     1.5743 C.3     
  18 C18           -4.4521    -5.1651     1.8035 C.3     
  19 N19           -5.2360    -5.0790    -1.1255 N.am    
  20 C20           -4.2138    -6.1227    -0.9573 C.3     
  21 C21           -4.1240    -6.9254    -2.2265 C.2     
  22 N22           -5.0314    -6.8483    -3.2011 N.am    
  23 C23           -6.1604    -5.9282    -3.2088 C.3     
  24 C24           -6.4949    -5.4666    -1.7839 C.3     
  25 O25           -3.1831    -7.6770    -2.3703 O.2     
  26 O26           -5.8530    -2.9581    -0.9181 O.2     
  27 C27           -2.7373    -3.4325     2.3511 C.3     
  28 C28           -5.1300    -2.7742     2.0611 C.3     
  29 C29           -2.5580     3.1617    -1.0708 C.ar    
  30 C30           -3.4193     3.2630    -2.1667 C.ar    
  31 C31           -3.9514     4.4911    -2.5117 C.ar    
  32 C32           -3.6330     5.6172    -1.7749 C.ar    
  33 C33           -2.7799     5.5229    -0.6884 C.ar    
  34 C34           -2.2458     4.3011    -0.3294 C.ar    
  35 F35           -3.7306     2.1635    -2.8873 F       
  36 Cl36          -2.3859     6.9432     0.2289 Cl      
  37 H37            0.4954    -1.4224     0.6074 H       
  38 H38            1.3412    -0.5249    -0.6778 H       
  39 H39            2.4949     2.1557     1.3119 H       
  40 H40            3.2980     0.8610     0.3986 H       
  41 H41            2.4352     2.5733    -1.1342 H       
  42 H42            1.5548     1.0449    -1.3642 H       
  43 H43            0.2398     3.3532    -1.1308 H       
  44 H44            0.4697     3.0477     0.6090 H       
  45 H45           -4.1172    -1.4425    -0.3958 H       
  46 H46            2.8656    -1.1753     1.5567 H       
  47 H47            2.7780     0.0575     2.8377 H       
  48 H48            1.4954    -1.1682     2.6928 H       
  49 H49           -2.9636    -4.1215    -0.2554 H       
  50 H50           -3.6568    -5.8341     1.4749 H       
  51 H51           -4.6452    -5.3238     2.8645 H       
  52 H52           -5.3586    -5.3713     1.2344 H       
  53 H53           -3.2495    -5.6591    -0.7496 H       
  54 H54           -4.4922    -6.7765    -0.1308 H       
  55 H55           -4.9322    -7.4468    -3.9580 H       
  56 H56           -5.9120    -5.0607    -3.8202 H       
  57 H57           -7.0291    -6.4298    -3.6351 H       
  58 H58           -6.9634    -6.2810    -1.2314 H       
  59 H59           -7.1692    -4.6109    -1.8210 H       
  60 H60           -2.4331    -2.3986     2.1878 H       
  61 H61           -2.9113    -3.5964     3.4145 H       
  62 H62           -1.9501    -4.1020     2.0043 H       
  63 H63           -6.0474    -2.9747     1.5078 H       
  64 H64           -5.3040    -2.9381     3.1246 H       
  65 H65           -4.8257    -1.7403     1.8978 H       
  66 H66           -4.6169     4.5715    -3.3584 H       
  67 H67           -4.0513     6.5746    -2.0483 H       
  68 H68           -1.5844     4.2287     0.5213 H       
@<TRIPOS>BOND
   1    1    2 1
   2    1    7 1
   3    1    8 1
   4    2    3 1
   5    2   10 2
   6    3    4 1
   7    3   37 1
   8    3   38 1
   9    4    5 1
  10    4   14 1
  11    5    6 1
  12    5   39 1
  13    5   40 1
  14    6    7 1
  15    6   41 1
  16    6   42 1
  17    7   43 1
  18    7   44 1
  19    8    9 2
  20    8   29 1
  21    9   10 1
  22   10   11 1
  23   11   12 2
  24   11   13 am
  25   13   16 1
  26   13   45 1
  27   14   46 1
  28   14   47 1
  29   14   48 1
  30   15   19 am
  31   15   26 2
  32   15   16 1
  33   16   17 1
  34   16   49 1
  35   17   18 1
  36   17   27 1
  37   17   28 1
  38   18   50 1
  39   18   51 1
  40   18   52 1
  41   19   20 1
  42   19   24 1
  43   20   21 1
  44   20   53 1
  45   20   54 1
  46   21   22 am
  47   21   25 2
  48   22   23 1
  49   22   55 1
  50   23   24 1
  51   23   56 1
  52   23   57 1
  53   24   58 1
  54   24   59 1
  55   27   60 1
  56   27   61 1
  57   27   62 1
  58   28   63 1
  59   28   64 1
  60   28   65 1
  61   29   30 ar
  62   29   34 ar
  63   30   31 ar
  64   30   35 1
  65   31   32 ar
  66   31   66 1
  67   32   33 ar
  68   32   67 1
  69   33   34 ar
  70   33   36 1
  71   34   68 1

#	End of record

