#	Name: ASD01310011
#	Creating user name:	WinNT
#	Creation time:	15. 06. 2019 19:15

#	Modifying user name:	WinNT
#	Modification time:	15. 06. 2019 19:15

#	Program:	/corina/corina34_cracker 3.40 0067  02.08.2006

@<TRIPOS>MOLECULE
ASD01310011
  33   35    0    0    0
SMALL
NO_CHARGES


@<TRIPOS>ATOM
   1 N1            -0.0181     1.4829     0.0102 N.3     
   2 C2             0.0021    -0.0041     0.0020 C.3     
   3 C3             0.4351    -0.4460    -1.4050 C.3     
   4 C4             1.8680     0.0326    -1.6560 C.3     
   5 C5             1.9598     1.5411    -1.4089 C.3     
   6 C6             1.4234     1.8484    -0.0016 C.3     
   7 C7             2.0765     0.8501     0.9818 C.3     
   8 C8             1.1373    -0.3740     0.9842 C.3     
   9 O9             2.2398    -0.2553    -3.0297 O.3     
  10 C10            3.5427    -0.4960    -3.2730 C.2     
  11 O11            4.3462    -0.4661    -2.3626 O.2     
  12 C12            3.0811    -0.8336    -5.7020 C.ar    
  13 C13            3.9942    -0.7962    -4.6471 C.ar    
  14 C14            5.3462    -1.0478    -4.9136 C.ar    
  15 C15            5.7171    -1.3235    -6.2176 C.ar    
  16 C16            4.7503    -1.3417    -7.2072 C.ar    
  17 N17            3.4838    -1.1008    -6.9270 N.ar    
  18 H18           -0.4890     1.8427    -0.8064 H       
  19 H19           -0.9588    -0.4312     0.2889 H       
  20 H20            0.3960    -1.5331    -1.4744 H       
  21 H21           -0.2317    -0.0069    -2.1470 H       
  22 H22            2.5474    -0.4874    -0.9807 H       
  23 H23            2.9995     1.8603    -1.4811 H       
  24 H24            1.3615     2.0697    -2.1511 H       
  25 H25            1.5877     2.8878     0.2825 H       
  26 H26            3.0687     0.5662     0.6310 H       
  27 H27            2.1360     1.2845     1.9797 H       
  28 H28            0.7349    -0.5414     1.9833 H       
  29 H29            1.6677    -1.2598     0.6346 H       
  30 H30            2.0347    -0.6461    -5.5114 H       
  31 H31            6.0802    -1.0269    -4.1216 H       
  32 H32            6.7505    -1.5220    -6.4606 H       
  33 H33            5.0373    -1.5562    -8.2261 H       
@<TRIPOS>BOND
   1    1    2 1
   2    1    6 1
   3    1   18 1
   4    2    3 1
   5    2    8 1
   6    2   19 1
   7    3    4 1
   8    3   20 1
   9    3   21 1
  10    4    5 1
  11    4    9 1
  12    4   22 1
  13    5    6 1
  14    5   23 1
  15    5   24 1
  16    6    7 1
  17    6   25 1
  18    7    8 1
  19    7   26 1
  20    7   27 1
  21    8   28 1
  22    8   29 1
  23    9   10 1
  24   10   11 2
  25   10   13 1
  26   12   13 ar
  27   12   17 ar
  28   12   30 1
  29   13   14 ar
  30   14   15 ar
  31   14   31 1
  32   15   16 ar
  33   15   32 1
  34   16   17 ar
  35   16   33 1

#	End of record

