#	Name: ASD01813979
#	Creating user name:	WinNT
#	Creation time:	15. 06. 2019 19:31

#	Modifying user name:	WinNT
#	Modification time:	15. 06. 2019 19:31

#	Program:	/corina/corina34_cracker 3.40 0067  02.08.2006

@<TRIPOS>MOLECULE
ASD01813979
  48   51    0    0    0
SMALL
NO_CHARGES


@<TRIPOS>ATOM
   1 C1            -1.2567    -1.0830     0.8845 C.ar    
   2 C2            -0.5050    -2.2436     0.7878 C.ar    
   3 C3             0.8447    -2.1889     0.5123 C.ar    
   4 C4             1.4687    -0.9588     0.3271 C.ar    
   5 C5             0.7067     0.2185     0.4245 C.ar    
   6 C6            -0.6602     0.1494     0.7047 C.ar    
   7 N7             2.8176    -0.8925     0.0517 N.pl3   
   8 C8             3.4643     0.2655    -0.1338 C.2     
   9 C9             2.8230     1.4855    -0.0627 C.2     
  10 C10            1.3796     1.5144     0.2262 C.2     
  11 F11           -1.3934     1.2802     0.7986 F       
  12 O12            0.7675     2.5656     0.2991 O.2     
  13 C13            3.5683     2.7347    -0.2715 C.2     
  14 O14            2.9306     3.9202    -0.1995 O.3     
  15 O15            4.7600     2.6991    -0.5091 O.2     
  16 C16            3.5765    -2.1422    -0.0416 C.3     
  17 C17            3.5559    -2.6373    -1.4649 C.ar    
  18 C18            4.5439    -2.2410    -2.3475 C.ar    
  19 C19            4.5279    -2.6930    -3.6525 C.ar    
  20 C20            3.5184    -3.5466    -4.0778 C.ar    
  21 C21            2.5279    -3.9431    -3.1888 C.ar    
  22 C22            2.5523    -3.4914    -1.8838 C.ar    
  23 N23            3.4991    -4.0059    -5.3993 N.am    
  24 C24            4.2159    -5.2377    -5.7050 C.3     
  25 C25            3.7182    -5.8338    -7.0223 C.3     
  26 C26            3.7403    -4.7391    -8.0960 C.3     
  27 C27            2.6829    -3.6911    -7.7402 C.3     
  28 C28            2.8216    -3.2921    -6.2992 C.2     
  29 O29            2.2963    -2.2609    -5.9360 O.2     
  30 H30           -2.3139    -1.1430     1.0968 H       
  31 H31           -0.9821    -3.2019     0.9303 H       
  32 H32            1.4182    -3.1011     0.4405 H       
  33 H33            4.5231     0.2440    -0.3457 H       
  34 H34            3.4628     4.7145    -0.3439 H       
  35 H35            4.6069    -1.9655     0.2667 H       
  36 H36            3.1255    -2.8907     0.6099 H       
  37 H37            5.3287    -1.5772    -2.0162 H       
  38 H38            5.2994    -2.3826    -4.3416 H       
  39 H39            1.7415    -4.6068    -3.5165 H       
  40 H40            1.7825    -3.7996    -1.1918 H       
  41 H41            5.2816    -5.0237    -5.7862 H       
  42 H42            4.0561    -5.9564    -4.9012 H       
  43 H43            4.3708    -6.6536    -7.3224 H       
  44 H44            2.6999    -6.2014    -6.8958 H       
  45 H45            4.7249    -4.2723    -8.1238 H       
  46 H46            3.5125    -5.1746    -9.0688 H       
  47 H47            2.8135    -2.8149    -8.3753 H       
  48 H48            1.6896    -4.1094    -7.9024 H       
@<TRIPOS>BOND
   1    1    2 ar
   2    1    6 ar
   3    1   30 1
   4    2    3 ar
   5    2   31 1
   6    3    4 ar
   7    3   32 1
   8    4    5 ar
   9    4    7 1
  10    5    6 ar
  11    5   10 1
  12    6   11 1
  13    7    8 1
  14    7   16 1
  15    8    9 2
  16    8   33 1
  17    9   10 1
  18    9   13 1
  19   10   12 2
  20   13   14 1
  21   13   15 2
  22   14   34 1
  23   16   17 1
  24   16   35 1
  25   16   36 1
  26   17   18 ar
  27   17   22 ar
  28   18   19 ar
  29   18   37 1
  30   19   20 ar
  31   19   38 1
  32   20   21 ar
  33   20   23 1
  34   21   22 ar
  35   21   39 1
  36   22   40 1
  37   23   24 1
  38   23   28 am
  39   24   25 1
  40   24   41 1
  41   24   42 1
  42   25   26 1
  43   25   43 1
  44   25   44 1
  45   26   27 1
  46   26   45 1
  47   26   46 1
  48   27   28 1
  49   27   47 1
  50   27   48 1
  51   28   29 2

#	End of record

