#	Name: ASD08070099
#	Creating user name:	WinNT
#	Creation time:	15. 06. 2019 21:14

#	Modifying user name:	WinNT
#	Modification time:	15. 06. 2019 21:14

#	Program:	/corina/corina34_cracker 3.40 0067  02.08.2006

@<TRIPOS>MOLECULE
ASD08070099
  46   47    0    0    0
SMALL
NO_CHARGES


@<TRIPOS>ATOM
   1 C1            -0.0166     1.3730     0.0096 C.ar    
   2 C2             0.0021    -0.0041     0.0020 C.ar    
   3 C3             1.1763     2.0860     0.0020 C.ar    
   4 C4             2.3926     1.4130    -0.0136 C.ar    
   5 C5             2.4197     0.0365    -0.0217 C.ar    
   6 C6             1.2224    -0.6842    -0.0133 C.ar    
   7 C7             1.2470    -2.1600    -0.0214 C.2     
   8 O8             2.3099    -2.7502    -0.0355 O.2     
   9 C9             0.2646    -4.8335     1.4115 C.3     
  10 C10            0.1156    -4.3180    -0.0213 C.3     
  11 N11            0.0912    -2.8533    -0.0132 N.am    
  12 C12           -1.1696    -4.8386    -0.6114 C.ar    
  13 C13           -1.1471    -5.9291    -1.4611 C.ar    
  14 O14            1.1537     3.4429     0.0095 O.3     
  15 C15           -2.3239    -6.4082    -2.0033 C.ar    
  16 C16           -0.1301     4.0703     0.0251 C.3     
  17 C17            3.6831     2.1912    -0.0223 C.3     
  18 C18            1.6254    -4.4091     1.9673 C.3     
  19 C19           -3.5290    -5.7942    -1.6946 C.ar    
  20 C20           -3.5490    -4.7002    -0.8417 C.ar    
  21 C21           -2.3700    -4.2284    -0.2976 C.ar    
  22 O22           -4.6880    -6.2633    -2.2270 O.3     
  23 C23           -5.8908    -5.5819    -1.8651 C.3     
  24 H24           -0.9595     1.8995     0.0169 H       
  25 H25           -0.9253    -0.5575     0.0082 H       
  26 H26            3.3651    -0.4856    -0.0346 H       
  27 H27           -0.5279    -4.4155     2.0323 H       
  28 H28            0.1937    -5.9212     1.4156 H       
  29 H29            0.9573    -4.6641    -0.6213 H       
  30 H30           -0.7567    -2.3824    -0.0020 H       
  31 H31           -0.2086    -6.4064    -1.7015 H       
  32 H32           -2.3057    -7.2597    -2.6673 H       
  33 H33           -0.6907     3.7729    -0.8612 H       
  34 H34           -0.6737     3.7634     0.9187 H       
  35 H35           -0.0053     5.1531     0.0297 H       
  36 H36            4.0044     2.3733     1.0032 H       
  37 H37            4.4486     1.6194    -0.5468 H       
  38 H38            3.5297     3.1437    -0.5295 H       
  39 H39            1.7315    -4.7764     2.9881 H       
  40 H40            2.4178    -4.8272     1.3466 H       
  41 H41            1.6963    -3.3214     1.9633 H       
  42 H42           -4.4859    -4.2205    -0.5997 H       
  43 H43           -2.3850    -3.3768     0.3664 H       
  44 H44           -5.8259    -4.5396    -2.1773 H       
  45 H45           -6.7395    -6.0565    -2.3576 H       
  46 H46           -6.0245    -5.6299    -0.7844 H       
@<TRIPOS>BOND
   1    1    2 ar
   2    1    3 ar
   3    1   24 1
   4    2    6 ar
   5    2   25 1
   6    3    4 ar
   7    3   14 1
   8    4    5 ar
   9    4   17 1
  10    5    6 ar
  11    5   26 1
  12    6    7 1
  13    7    8 2
  14    7   11 am
  15    9   18 1
  16    9   10 1
  17    9   27 1
  18    9   28 1
  19   10   12 1
  20   10   11 1
  21   10   29 1
  22   11   30 1
  23   12   13 ar
  24   12   21 ar
  25   13   15 ar
  26   13   31 1
  27   14   16 1
  28   15   19 ar
  29   15   32 1
  30   16   33 1
  31   16   34 1
  32   16   35 1
  33   17   36 1
  34   17   37 1
  35   17   38 1
  36   18   39 1
  37   18   40 1
  38   18   41 1
  39   19   20 ar
  40   19   22 1
  41   20   21 ar
  42   20   42 1
  43   21   43 1
  44   22   23 1
  45   23   44 1
  46   23   45 1
  47   23   46 1

#	End of record

