#	Name: ASD02030190
#	Creating user name:	WinNT
#	Creation time:	15. 06. 2019 20:14

#	Modifying user name:	WinNT
#	Modification time:	15. 06. 2019 20:14

#	Program:	/corina/corina34_cracker 3.40 0067  02.08.2006

@<TRIPOS>MOLECULE
ASD02030190
  58   62    0    0    0
SMALL
NO_CHARGES


@<TRIPOS>ATOM
   1 N1            -0.3619     1.4589    -0.3835 N.am    
   2 C2            -0.3793    -0.0101    -0.3421 C.3     
   3 C3            -1.1641    -0.4562     0.8977 C.3     
   4 N4            -2.4422     0.2684     0.9304 N.am    
   5 C5            -2.4248     1.7374     0.8890 C.3     
   6 C6            -1.6398     2.1837    -0.3452 C.3     
   7 C7             0.8053     2.1295    -0.4496 C.2     
   8 C8             2.0855     1.3955    -0.3611 C.2     
   9 N9             3.2838     1.9348    -0.2968 N.2     
  10 N10            2.2302     0.0581    -0.3263 N.2     
  11 C11            3.5122    -0.1925    -0.2465 C.2     
  12 N12            4.1586     0.9913    -0.2289 N.pl3   
  13 O13            0.8054     3.3378    -0.5821 O.2     
  14 C14           -3.6094    -0.4022     0.9965 C.2     
  15 C15           -3.6172    -1.8773     0.9424 C.ar    
  16 O16           -4.6560     0.2079     1.1009 O.2     
  17 C17           -1.3761     3.6888    -0.2694 C.3     
  18 C18           -2.4419     1.8623    -1.6078 C.3     
  19 C19            5.5470     1.1655    -0.1505 C.ar    
  20 C20            6.0879     2.4437    -0.1407 C.ar    
  21 C21            7.4579     2.6122    -0.0628 C.ar    
  22 C22            8.2890     1.5078     0.0049 C.ar    
  23 C23            7.7519     0.2336    -0.0047 C.ar    
  24 C24            6.3838     0.0595    -0.0766 C.ar    
  25 C25           -2.7237    -2.6118     1.7259 C.ar    
  26 Cl26           8.1362     4.2102    -0.0505 Cl      
  27 C27           -4.5217    -2.5428     0.1120 C.ar    
  28 C28           -4.5271    -3.9251     0.0633 C.ar    
  29 C29           -3.6290    -4.6518     0.8401 C.ar    
  30 C30           -2.7328    -3.9889     1.6722 C.ar    
  31 Cl31          -1.6164    -4.8995     2.6407 Cl      
  32 O32           -5.4198    -4.5593    -0.7457 O.3     
  33 C33           -5.1490    -5.9313    -1.0520 C.3     
  34 C34           -4.7746    -6.6496     0.2515 C.3     
  35 O35           -3.6160    -6.0110     0.7984 O.3     
  36 H36           -0.8631    -0.3956    -1.2396 H       
  37 H37            0.6420    -0.3865    -0.2837 H       
  38 H38           -1.3527    -1.5285     0.8450 H       
  39 H39           -0.5905    -0.2269     1.7958 H       
  40 H40           -3.4461     2.1138     0.8306 H       
  41 H41           -1.9410     2.1229     1.7865 H       
  42 H42            3.9695    -1.1698    -0.1999 H       
  43 H43           -0.7106     3.8994     0.5678 H       
  44 H44           -0.9106     4.0233    -1.1966 H       
  45 H45           -2.3191     4.2162    -0.1255 H       
  46 H46           -3.3961     2.3883    -1.5759 H       
  47 H47           -1.8804     2.1812    -2.4860 H       
  48 H48           -2.6207     0.7883    -1.6612 H       
  49 H49            5.4394     3.3057    -0.1943 H       
  50 H50            9.3590     1.6413     0.0649 H       
  51 H51            8.4030    -0.6265     0.0478 H       
  52 H52            5.9653    -0.9361    -0.0837 H       
  53 H53           -2.0261    -2.1008     2.3730 H       
  54 H54           -5.2170    -1.9782    -0.4917 H       
  55 H55           -6.0364    -6.3935    -1.4846 H       
  56 H56           -4.3204    -5.9939    -1.7573 H       
  57 H57           -5.6007    -6.5811     0.9593 H       
  58 H58           -4.5537    -7.6966     0.0438 H       
@<TRIPOS>BOND
   1    1    2 1
   2    1    7 am
   3    1    6 1
   4    2    3 1
   5    2   36 1
   6    2   37 1
   7    3    4 1
   8    3   38 1
   9    3   39 1
  10    4    5 1
  11    4   14 am
  12    5    6 1
  13    5   40 1
  14    5   41 1
  15    6   17 1
  16    6   18 1
  17    7    8 1
  18    7   13 2
  19    8    9 2
  20    8   10 1
  21    9   12 1
  22   10   11 2
  23   11   12 1
  24   11   42 1
  25   12   19 1
  26   14   15 1
  27   14   16 2
  28   15   27 ar
  29   15   25 ar
  30   17   43 1
  31   17   44 1
  32   17   45 1
  33   18   46 1
  34   18   47 1
  35   18   48 1
  36   19   20 ar
  37   19   24 ar
  38   20   21 ar
  39   20   49 1
  40   21   22 ar
  41   21   26 1
  42   22   23 ar
  43   22   50 1
  44   23   24 ar
  45   23   51 1
  46   24   52 1
  47   25   30 ar
  48   25   53 1
  49   27   28 ar
  50   27   54 1
  51   28   29 ar
  52   28   32 1
  53   29   30 ar
  54   29   35 1
  55   30   31 1
  56   32   33 1
  57   33   34 1
  58   33   55 1
  59   33   56 1
  60   34   35 1
  61   34   57 1
  62   34   58 1

#	End of record

