#	Name: ASD03091999
#	Creating user name:	WinNT
#	Creation time:	15. 06. 2019 20:31

#	Modifying user name:	WinNT
#	Modification time:	15. 06. 2019 20:31

#	Program:	/corina/corina34_cracker 3.40 0067  02.08.2006

@<TRIPOS>MOLECULE
ASD03091999
  40   42    0    0    0
SMALL
NO_CHARGES


@<TRIPOS>ATOM
   1 C1            -0.4285     1.4002    -0.1794 C.3     
   2 C2            -0.2791    -0.0978    -0.1112 C.2     
   3 C3            -1.2754    -1.0102    -0.1473 C.2     
   4 C4            -0.5996    -2.2602    -0.0519 C.2     
   5 N5             0.6785    -1.9771     0.0280 N.2     
   6 O6             0.8687    -0.7837    -0.0089 O.3     
   7 C7            -1.2155    -3.6070    -0.0445 C.2     
   8 C8            -2.5684    -3.7379    -0.1355 C.2     
   9 N9            -3.1250    -4.9729    -0.2884 N.pl3   
  10 C10           -4.5143    -5.1223    -0.2552 C.ar    
  11 C11           -5.0937    -6.3801    -0.4045 C.ar    
  12 C12           -6.4751    -6.4773    -0.3639 C.ar    
  13 C13           -7.2274    -5.3325    -0.1781 C.ar    
  14 N14           -6.6482    -4.1556    -0.0403 N.ar    
  15 C15           -5.3378    -4.0191    -0.0669 C.ar    
  16 C16           -0.3695    -4.7989     0.0607 C.2     
  17 O17           -0.8785    -5.8970     0.1908 O.2     
  18 N18            0.9721    -4.6794     0.0135 N.am    
  19 C19            1.7769    -5.8245     0.0048 C.ar    
  20 C20            1.3461    -6.9722    -0.6476 C.ar    
  21 C21            2.1419    -8.1009    -0.6553 C.ar    
  22 C22            3.3685    -8.0888    -0.0127 C.ar    
  23 F23            4.1453    -9.1941    -0.0211 F       
  24 C24            3.8002    -6.9453     0.6381 C.ar    
  25 C25            3.0098    -5.8127     0.6437 C.ar    
  26 H26            0.5557     1.8661    -0.1323 H       
  27 H27           -0.9159     1.6745    -1.1151 H       
  28 H28           -1.0336     1.7435     0.6597 H       
  29 H29           -2.3376    -0.8326    -0.2294 H       
  30 H30           -3.2000    -2.8632    -0.0866 H       
  31 H31           -2.5569    -5.7480    -0.4203 H       
  32 H32           -4.4813    -7.2579    -0.5487 H       
  33 H33           -6.9587    -7.4364    -0.4765 H       
  34 H34           -8.3046    -5.4028    -0.1457 H       
  35 H35           -4.8997    -3.0395     0.0545 H       
  36 H36            1.3800    -3.7997    -0.0145 H       
  37 H37            0.3892    -6.9822    -1.1483 H       
  38 H38            1.8073    -8.9937    -1.1626 H       
  39 H39            4.7571    -6.9380     1.1386 H       
  40 H40            3.3486    -4.9198     1.1479 H       
@<TRIPOS>BOND
   1    1    2 1
   2    1   26 1
   3    1   27 1
   4    1   28 1
   5    2    6 1
   6    2    3 2
   7    3    4 1
   8    3   29 1
   9    4    5 2
  10    4    7 1
  11    5    6 1
  12    7    8 2
  13    7   16 1
  14    8    9 1
  15    8   30 1
  16    9   10 1
  17    9   31 1
  18   10   15 ar
  19   10   11 ar
  20   11   12 ar
  21   11   32 1
  22   12   13 ar
  23   12   33 1
  24   13   14 ar
  25   13   34 1
  26   14   15 ar
  27   15   35 1
  28   16   17 2
  29   16   18 am
  30   18   19 1
  31   18   36 1
  32   19   25 ar
  33   19   20 ar
  34   20   21 ar
  35   20   37 1
  36   21   22 ar
  37   21   38 1
  38   22   23 1
  39   22   24 ar
  40   24   25 ar
  41   24   39 1
  42   25   40 1

#	End of record

