#	Name: ASD01260004
#	Creating user name:	WinNT
#	Creation time:	15. 06. 2019 19:15

#	Modifying user name:	WinNT
#	Modification time:	15. 06. 2019 19:15

#	Program:	/corina/corina34_cracker 3.40 0067  02.08.2006

@<TRIPOS>MOLECULE
ASD01260004
  14   13    0    0    0
SMALL
NO_CHARGES


@<TRIPOS>ATOM
   1 C1            -0.0184     1.5028     0.0103 C.2     
   2 N2             1.3055    -0.4734    -0.4867 N.3     
   3 C3             0.0021    -0.0041     0.0020 C.3     
   4 C4            -0.2279    -0.5251     1.4221 C.3     
   5 O5            -0.3247    -1.9505     1.3966 O.3     
   6 O6             1.0197     2.1211     0.0037 O.2     
   7 O7            -1.1898     2.1580     0.0194 O.3     
   8 H8             2.0536    -0.1430     0.1043 H       
   9 H9             1.3222    -1.4794    -0.5627 H       
  10 H10           -0.7864    -0.3745    -0.6531 H       
  11 H11            0.6068    -0.2288     2.0574 H       
  12 H12           -1.1526    -0.1051     1.8179 H       
  13 H13           -0.4710    -2.3504     2.2649 H       
  14 H14           -1.1523     3.1243     0.0245 H       
@<TRIPOS>BOND
   1    1    3 1
   2    1    6 2
   3    1    7 1
   4    2    3 1
   5    2    8 1
   6    2    9 1
   7    3    4 1
   8    3   10 1
   9    4    5 1
  10    4   11 1
  11    4   12 1
  12    5   13 1
  13    7   14 1

#	End of record

