#	Name: ASD01120239
#	Creating user name:	WinNT
#	Creation time:	15. 06. 2019 18:59

#	Modifying user name:	WinNT
#	Modification time:	15. 06. 2019 18:59

#	Program:	/corina/corina34_cracker 3.40 0067  02.08.2006

@<TRIPOS>MOLECULE
ASD01120239
  56   57    0    0    0
SMALL
NO_CHARGES


@<TRIPOS>ATOM
   1 C1            -0.0167     1.3791     0.0096 C.ar    
   2 C2             0.0021    -0.0041     0.0020 C.ar    
   3 C3            -1.1857    -0.7112     0.0100 C.ar    
   4 C4            -2.3919    -0.0365     0.0257 C.ar    
   5 C5            -2.4113     1.3460     0.0333 C.ar    
   6 C6            -1.2245     2.0540     0.0306 C.ar    
   7 S7            -3.9495     2.2052     0.0532 S.o2    
   8 N8            -4.3617     2.4358     1.6404 N.am    
   9 C9            -3.6007     3.2226     2.4268 C.2     
  10 N10           -3.9362     3.4102     3.7186 N.am    
  11 O11           -3.6957     3.4949    -0.4869 O.2     
  12 O12           -4.9146     1.3128    -0.4865 O.2     
  13 O13           -2.6116     3.7631     1.9709 O.2     
  14 C14           -4.9061    14.2933     8.7749 C.ar    
  15 C15           -5.2290    14.6952    10.0586 C.ar    
  16 C16           -4.2827    14.6232    11.0637 C.ar    
  17 C17           -3.0141    14.1498    10.7863 C.ar    
  18 C18           -2.6907    13.7479     9.5035 C.ar    
  19 C19           -3.6375    13.8145     8.4990 C.ar    
  20 S20           -1.0733    13.1446     9.1509 S.o2    
  21 N21           -1.0973    11.5067     9.3938 N.am    
  22 C22           -1.8582    10.7199     8.6074 C.2     
  23 N23           -1.8778     9.3868     8.8051 N.am    
  24 O24           -0.8665    13.3407     7.7587 O.2     
  25 O25           -0.2170    13.6855    10.1476 O.2     
  26 O26           -2.5270    11.2127     7.7196 O.2     
  27 C27           -3.7059     4.3089     5.9815 C.3     
  28 Cl28          -6.0941    14.3829     7.5123 Cl      
  29 Cl29           1.4746     2.2678     0.0002 Cl      
  30 C30           -3.1091     4.2655     4.5734 C.3     
  31 C31           -2.5469     7.0726     8.3830 C.3     
  32 C32           -3.3977     6.1929     7.5037 C.2     
  33 C33           -2.8551     5.1887     6.8608 C.2     
  34 C34           -2.7049     8.5316     7.9503 C.3     
  35 H35            0.9445    -0.5314    -0.0105 H       
  36 H36           -1.1712    -1.7911     0.0037 H       
  37 H37           -3.3197    -0.5894     0.0316 H       
  38 H38           -1.2398     3.1339     0.0365 H       
  39 H39           -5.1507     2.0046     2.0041 H       
  40 H40           -4.7253     2.9790     4.0823 H       
  41 H41           -6.2201    15.0655    10.2754 H       
  42 H42           -4.5346    14.9373    12.0659 H       
  43 H43           -2.2750    14.0941    11.5718 H       
  44 H44           -3.3848    13.5006     7.4970 H       
  45 H45           -0.5638    11.1135    10.1021 H       
  46 H46           -1.3443     8.9937     9.5134 H       
  47 H47           -4.7178     4.7116     5.9350 H       
  48 H48           -3.7347     3.3009     6.3952 H       
  49 H49           -2.0973     3.8628     4.6199 H       
  50 H50           -3.0803     5.2735     4.1597 H       
  51 H51           -2.8639     6.9649     9.4203 H       
  52 H52           -1.5018     6.7772     8.2900 H       
  53 H53           -4.4548     6.3903     7.4035 H       
  54 H54           -1.7980     4.9912     6.9610 H       
  55 H55           -3.7500     8.8270     8.0433 H       
  56 H56           -2.3879     8.6393     6.9130 H       
@<TRIPOS>BOND
   1    1    2 ar
   2    1   29 1
   3    1    6 ar
   4    2    3 ar
   5    2   35 1
   6    3    4 ar
   7    3   36 1
   8    4    5 ar
   9    4   37 1
  10    5    6 ar
  11    5    7 1
  12    6   38 1
  13    7    8 am
  14    7   11 2
  15    7   12 2
  16    8    9 am
  17    8   39 1
  18    9   10 am
  19    9   13 2
  20   10   30 1
  21   10   40 1
  22   14   15 ar
  23   14   28 1
  24   14   19 ar
  25   15   16 ar
  26   15   41 1
  27   16   17 ar
  28   16   42 1
  29   17   18 ar
  30   17   43 1
  31   18   19 ar
  32   18   20 1
  33   19   44 1
  34   20   21 am
  35   20   24 2
  36   20   25 2
  37   21   22 am
  38   21   45 1
  39   22   23 am
  40   22   26 2
  41   23   34 1
  42   23   46 1
  43   27   30 1
  44   27   33 1
  45   27   47 1
  46   27   48 1
  47   30   49 1
  48   30   50 1
  49   31   32 1
  50   31   34 1
  51   31   51 1
  52   31   52 1
  53   32   33 2
  54   32   53 1
  55   33   54 1
  56   34   55 1
  57   34   56 1

#	End of record

