#	Name: ASD06152004
#	Creating user name:	WinNT
#	Creation time:	15. 06. 2019 21:05

#	Modifying user name:	WinNT
#	Modification time:	15. 06. 2019 21:05

#	Program:	/corina/corina34_cracker 3.40 0067  02.08.2006

@<TRIPOS>MOLECULE
ASD06152004
  57   58    0    0    0
SMALL
NO_CHARGES


@<TRIPOS>ATOM
   1 C1            -0.3245     2.1039    -0.0491 C.3     
   2 C2             0.2617     0.6922     0.0353 C.3     
   3 O3            -0.7940    -0.2492     0.2388 O.3     
   4 C4            -1.5294    -0.0489     1.4477 C.3     
   5 C5            -2.1875     1.3331     1.4200 C.3     
   6 C6            -1.1057     2.4015     1.2344 C.3     
   7 O7            -1.7177     3.6890     1.1339 O.3     
   8 C8            -2.6090    -1.1258     1.5725 C.3     
   9 O9             0.9449     0.3863    -1.1819 O.3     
  10 O10           -1.9905    -2.4061     1.7153 O.3     
  11 N11            0.7609     3.0765    -0.1983 N.am    
  12 O12           -2.8756     1.5590     2.6518 O.3     
  13 C13            1.2575     3.3498    -1.4210 C.2     
  14 C14            2.3739     4.3504    -1.5745 C.3     
  15 O15            0.8059     2.7906    -2.3979 O.2     
  16 C16           -4.2884     1.7178     2.5078 C.3     
  17 C17           -4.9461     1.7148     3.8902 C.3     
  18 C18           -6.4520     1.9455     3.7311 C.3     
  19 C19           -6.6794     3.2621     2.9820 C.3     
  20 C20           -5.9548     3.2053     1.6346 C.3     
  21 O21           -4.5644     2.9576     1.8531 O.3     
  22 C22           -6.1271     4.5395     0.9059 C.3     
  23 O23           -7.0635     2.0175     5.0207 O.3     
  24 O24           -8.0788     3.4520     2.7640 O.3     
  25 O25           -5.5512     4.4476    -0.3987 O.3     
  26 N26           -4.7148     0.4222     4.5397 N.am    
  27 C27           -3.5744     0.2069     5.2250 C.2     
  28 C28           -3.3364    -1.1228     5.8931 C.3     
  29 O29           -2.7397     1.0832     5.3039 O.2     
  30 H30           -0.9932     2.1699    -0.9073 H       
  31 H31            0.9621     0.6386     0.8688 H       
  32 H32           -0.8524    -0.1121     2.2996 H       
  33 H33           -2.8948     1.3832     0.5921 H       
  34 H34           -0.4266     2.3847     2.0868 H       
  35 H35           -1.0898     4.4147     1.0147 H       
  36 H36           -3.2269    -0.9212     2.4468 H       
  37 H37           -3.2321    -1.1210     0.6781 H       
  38 H38            1.3423    -0.4951    -1.1991 H       
  39 H39           -2.6166    -3.1381     1.7999 H       
  40 H40            1.1221     3.5238     0.5830 H       
  41 H41            3.2420     4.0160    -1.0064 H       
  42 H42            2.6408     4.4383    -2.6277 H       
  43 H43            2.0465     5.3204    -1.2004 H       
  44 H44           -4.6878     0.8959     1.9135 H       
  45 H45           -4.5179     2.5112     4.4990 H       
  46 H46           -6.8890     1.1234     3.1644 H       
  47 H47           -6.2862     4.0897     3.5724 H       
  48 H48           -6.3761     2.4030     1.0289 H       
  49 H49           -7.1885     4.7716     0.8190 H       
  50 H50           -5.6276     5.3281     1.4688 H       
  51 H51           -8.0192     2.1627     4.9953 H       
  52 H52           -8.2964     4.2682     2.2933 H       
  53 H53           -5.6241     5.2595    -0.9189 H       
  54 H54           -5.3823    -0.2787     4.4765 H       
  55 H55           -4.1894    -1.7773     5.7138 H       
  56 H56           -2.4356    -1.5794     5.4830 H       
  57 H57           -3.2121    -0.9735     6.9656 H       
@<TRIPOS>BOND
   1    1    2 1
   2    1   11 1
   3    1    6 1
   4    1   30 1
   5    2    3 1
   6    2    9 1
   7    2   31 1
   8    3    4 1
   9    4    5 1
  10    4    8 1
  11    4   32 1
  12    5    6 1
  13    5   12 1
  14    5   33 1
  15    6    7 1
  16    6   34 1
  17    7   35 1
  18    8   10 1
  19    8   36 1
  20    8   37 1
  21    9   38 1
  22   10   39 1
  23   11   13 am
  24   11   40 1
  25   12   16 1
  26   13   14 1
  27   13   15 2
  28   14   41 1
  29   14   42 1
  30   14   43 1
  31   16   17 1
  32   16   21 1
  33   16   44 1
  34   17   18 1
  35   17   26 1
  36   17   45 1
  37   18   19 1
  38   18   23 1
  39   18   46 1
  40   19   20 1
  41   19   24 1
  42   19   47 1
  43   20   21 1
  44   20   22 1
  45   20   48 1
  46   22   25 1
  47   22   49 1
  48   22   50 1
  49   23   51 1
  50   24   52 1
  51   25   53 1
  52   26   27 am
  53   26   54 1
  54   27   28 1
  55   27   29 2
  56   28   55 1
  57   28   56 1
  58   28   57 1

#	End of record

