#	Name: ASD02500694
#	Creating user name:	WinNT
#	Creation time:	15. 06. 2019 20:23

#	Modifying user name:	WinNT
#	Modification time:	15. 06. 2019 20:23

#	Program:	/corina/corina34_cracker 3.40 0067  02.08.2006

@<TRIPOS>MOLECULE
ASD02500694
  68   72    0    0    0
SMALL
NO_CHARGES


@<TRIPOS>ATOM
   1 N1            -3.1467     5.3235     0.7055 N.ar    
   2 C2            -4.3107     5.9081     0.8528 C.ar    
   3 C3            -5.1783     5.5640     1.8874 C.ar    
   4 C4            -4.8231     4.5939     2.7807 C.ar    
   5 C5            -3.5725     3.9680     2.6191 C.ar    
   6 C6            -3.1389     2.9628     3.4980 C.ar    
   7 C7            -1.9220     2.3818     3.3082 C.ar    
   8 C8            -1.1005     2.7720     2.2529 C.ar    
   9 C9            -1.4893     3.7431     1.3820 C.ar    
  10 C10           -2.7385     4.3665     1.5449 C.ar    
  11 S11           -0.4302     4.2177     0.0562 S.o2    
  12 O12           -0.3744     5.6375     0.0758 O.2     
  13 O13            0.7234     3.3933     0.1493 O.2     
  14 N14           -1.1917     3.7990    -1.3534 N.am    
  15 C15           -1.4469     2.4613    -1.6351 C.ar    
  16 C16           -2.7038     2.0762    -2.0858 C.ar    
  17 C17           -2.9577     0.7454    -2.3664 C.ar    
  18 C18           -1.9410    -0.2073    -2.1931 C.ar    
  19 C19           -0.6813     0.1962    -1.7388 C.ar    
  20 C20           -0.4398     1.5126    -1.4698 C.ar    
  21 O21           -4.1827     0.3630    -2.8063 O.3     
  22 C22           -5.1667     1.3881    -2.9579 C.3     
  23 C23           -2.2001    -1.6263    -2.4882 C.2     
  24 O24           -3.1418    -2.1935    -1.9678 O.2     
  25 N25           -1.3940    -2.2966    -3.3351 N.am    
  26 C26           -1.6884    -3.6861    -3.7168 C.3     
  27 C27           -1.6548    -3.7886    -5.2454 C.3     
  28 N28           -0.3738    -3.2666    -5.7400 N.3     
  29 C29           -0.2217    -1.8403    -5.4234 C.3     
  30 C30           -0.1998    -1.6560    -3.9068 C.3     
  31 C31           -0.2304    -3.5039    -7.1826 C.3     
  32 C32           -0.1352    -5.0082    -7.4451 C.3     
  33 C33           -0.0420    -5.2745    -8.9577 C.3     
  34 C34            1.3025    -5.9922    -9.1968 C.3     
  35 C35            1.6338    -6.6430    -7.8309 C.3     
  36 C36            1.1559    -5.5734    -6.8177 C.3     
  37 H37           -4.6049     6.6771     0.1539 H       
  38 H38           -6.1306     6.0643     1.9831 H       
  39 H39           -5.4831     4.3149     3.5887 H       
  40 H40           -3.7666     2.6524     4.3202 H       
  41 H41           -1.5893     1.6087     3.9848 H       
  42 H42           -0.1394     2.2965     2.1239 H       
  43 H43           -1.4597     4.4868    -1.9827 H       
  44 H44           -3.4812     2.8144    -2.2164 H       
  45 H45            0.1027    -0.5342    -1.6041 H       
  46 H46            0.5358     1.8198    -1.1231 H       
  47 H47           -4.8142     2.1264    -3.6781 H       
  48 H48           -6.0978     0.9480    -3.3148 H       
  49 H49           -5.3386     1.8718    -1.9963 H       
  50 H50           -0.9376    -4.3504    -3.2888 H       
  51 H51           -2.6775    -3.9641    -3.3529 H       
  52 H52           -1.7615    -4.8319    -5.5425 H       
  53 H53           -2.4727    -3.2044    -5.6672 H       
  54 H54            0.7110    -1.4706    -5.8495 H       
  55 H55           -1.0596    -1.2832    -5.8426 H       
  56 H56           -0.2053    -0.5924    -3.6684 H       
  57 H57            0.6968    -2.1213    -3.4974 H       
  58 H58           -1.0964    -3.0979    -7.7054 H       
  59 H59            0.6742    -3.0142    -7.5432 H       
  60 H60           -1.0060    -5.5153    -7.0296 H       
  61 H61           -0.8671    -5.9115    -9.2762 H       
  62 H62           -0.0646    -4.3320    -9.5048 H       
  63 H63            1.1955    -6.7558    -9.9673 H       
  64 H64            2.0741    -5.2742    -9.4745 H       
  65 H65            1.0796    -7.5727    -7.7014 H       
  66 H66            2.7059    -6.8146    -7.7347 H       
  67 H67            1.9039    -4.7877    -6.7112 H       
  68 H68            0.9420    -6.0313    -5.8520 H       
@<TRIPOS>BOND
   1    1    2 ar
   2    1   10 ar
   3    2    3 ar
   4    2   37 1
   5    3    4 ar
   6    3   38 1
   7    4    5 ar
   8    4   39 1
   9    5    6 ar
  10    5   10 ar
  11    6    7 ar
  12    6   40 1
  13    7    8 ar
  14    7   41 1
  15    8    9 ar
  16    8   42 1
  17    9   10 ar
  18    9   11 1
  19   11   12 2
  20   11   13 2
  21   11   14 am
  22   14   15 1
  23   14   43 1
  24   15   16 ar
  25   15   20 ar
  26   16   17 ar
  27   16   44 1
  28   17   18 ar
  29   17   21 1
  30   18   19 ar
  31   18   23 1
  32   19   20 ar
  33   19   45 1
  34   20   46 1
  35   21   22 1
  36   22   47 1
  37   22   48 1
  38   22   49 1
  39   23   24 2
  40   23   25 am
  41   25   26 1
  42   25   30 1
  43   26   27 1
  44   26   50 1
  45   26   51 1
  46   27   28 1
  47   27   52 1
  48   27   53 1
  49   28   29 1
  50   28   31 1
  51   29   30 1
  52   29   54 1
  53   29   55 1
  54   30   56 1
  55   30   57 1
  56   31   32 1
  57   31   58 1
  58   31   59 1
  59   32   33 1
  60   32   36 1
  61   32   60 1
  62   33   34 1
  63   33   61 1
  64   33   62 1
  65   34   35 1
  66   34   63 1
  67   34   64 1
  68   35   36 1
  69   35   65 1
  70   35   66 1
  71   36   67 1
  72   36   68 1

#	End of record

