#	Name: ASD05790088
#	Creating user name:	WinNT
#	Creation time:	15. 06. 2019 21:03

#	Modifying user name:	WinNT
#	Modification time:	15. 06. 2019 21:03

#	Program:	/corina/corina34_cracker 3.40 0067  02.08.2006

@<TRIPOS>MOLECULE
ASD05790088
  76   81    0    0    0
SMALL
NO_CHARGES


@<TRIPOS>ATOM
   1 C1            -0.0054     1.4789     0.0363 C.3     
   2 C2             0.0135    -0.0338    -0.0128 C.2     
   3 C3             0.8235    -0.6994    -1.1015 C.3     
   4 C4             2.2481    -0.1301    -1.0853 C.3     
   5 C5             2.1816     1.4032    -1.1805 C.3     
   6 C6             1.4422     1.9781     0.0231 C.3     
   7 C7             3.0095    -0.7044    -2.2838 C.3     
   8 C8             2.3519    -0.2723    -3.6050 C.3     
   9 C9             2.3549     1.2422    -3.6417 C.3     
  10 C10            1.4710     1.7421    -2.4701 C.3     
  11 C11            1.6587     1.8862    -4.8457 C.3     
  12 C12            1.2559     3.2702    -4.3460 C.2     
  13 C13            1.2854     3.2135    -2.8129 C.3     
  14 C14            2.6362     1.9879    -6.0009 C.3     
  15 C15            2.0543     2.5748    -7.2399 C.3     
  16 C16            1.9550     4.0825    -7.2595 C.3     
  17 C17            0.7624     4.5911    -6.4702 C.3     
  18 C18            0.8900     4.2805    -5.0205 C.2     
  19 C19            1.7982     4.5491    -8.7376 C.3     
  20 C20            2.6939     5.7985    -8.7569 C.3     
  21 C21            3.8368     5.3048    -7.8281 C.3     
  22 O22            3.1726     4.6697    -6.7533 O.3     
  23 N23            3.3033     6.1033   -10.0458 N.3     
  24 C24            4.2134     7.2523    -9.8842 C.3     
  25 C25            5.3183     6.9612    -8.8728 C.3     
  26 C26            4.7281     6.4913    -7.5312 C.3     
  27 C27            3.6014     1.9718    -1.2240 C.3     
  28 C28            0.4893     5.4408    -4.1465 C.3     
  29 C29            6.1374     8.2329    -8.6435 C.3     
  30 C30            2.3172     3.4858    -9.7075 C.3     
  31 N31           -0.6367    -0.7287     0.8425 N.2     
  32 O32           -1.3885    -0.0835     1.8543 O.3     
  33 H33           -0.5364     1.8681    -0.8324 H       
  34 H34           -0.5002     1.8107     0.9491 H       
  35 H35            0.8585    -1.7744    -0.9243 H       
  36 H36            0.3634    -0.5031    -2.0699 H       
  37 H37            2.7455    -0.4170    -0.1588 H       
  38 H38            1.4490     3.0665    -0.0343 H       
  39 H39            1.9420     1.6627     0.9390 H       
  40 H40            4.0384    -0.3453    -2.2609 H       
  41 H41            3.0085    -1.7926    -2.2216 H       
  42 H42            2.9218    -0.6640    -4.4475 H       
  43 H43            1.3272    -0.6415    -3.6465 H       
  44 H44            3.3721     1.6196    -3.5363 H       
  45 H45            0.5045     1.2391    -2.4995 H       
  46 H46            0.7766     1.3116    -5.1282 H       
  47 H47            0.3448     3.5814    -2.4030 H       
  48 H48            2.1206     3.7993    -2.4291 H       
  49 H49            3.4797     2.6035    -5.6885 H       
  50 H50            3.0065     0.9889    -6.2310 H       
  51 H51            2.6651     2.2612    -8.0864 H       
  52 H52            1.0537     2.1643    -7.3755 H       
  53 H53            0.6863     5.6710    -6.5972 H       
  54 H54           -0.1442     4.1243    -6.8554 H       
  55 H55            0.7623     4.8059    -8.9593 H       
  56 H56            2.1797     6.6624    -8.3357 H       
  57 H57            4.4240     4.5605    -8.3659 H       
  58 H58            3.7946     5.3016   -10.4121 H       
  59 H59            4.6663     7.4851   -10.8480 H       
  60 H60            3.6397     8.1149    -9.5452 H       
  61 H61            5.9705     6.1830    -9.2692 H       
  62 H62            4.1420     7.2930    -7.0820 H       
  63 H63            5.5305     6.1934    -6.8563 H       
  64 H64            4.1625     1.4873    -2.0230 H       
  65 H65            3.5574     3.0450    -1.4100 H       
  66 H66            4.0956     1.7884    -0.2700 H       
  67 H67            0.1845     6.2792    -4.7728 H       
  68 H68           -0.3421     5.1439    -3.5071 H       
  69 H69            1.3355     5.7386    -3.5273 H       
  70 H70            5.4876     9.0193    -8.2595 H       
  71 H71            6.9285     8.0304    -7.9214 H       
  72 H72            6.5797     8.5551    -9.5862 H       
  73 H73            1.7531     2.5632    -9.5711 H       
  74 H74            2.1955     3.8380   -10.7319 H       
  75 H75            3.3728     3.2988    -9.5107 H       
  76 H76           -1.8450    -0.6907     2.4527 H       
@<TRIPOS>BOND
   1    1    2 1
   2    1    6 1
   3    1   33 1
   4    1   34 1
   5    2    3 1
   6    2   31 2
   7    3    4 1
   8    3   35 1
   9    3   36 1
  10    4    5 1
  11    4    7 1
  12    4   37 1
  13    5    6 1
  14    5   27 1
  15    5   10 1
  16    6   38 1
  17    6   39 1
  18    7    8 1
  19    7   40 1
  20    7   41 1
  21    8    9 1
  22    8   42 1
  23    8   43 1
  24    9   10 1
  25    9   11 1
  26    9   44 1
  27   10   13 1
  28   10   45 1
  29   11   12 1
  30   11   14 1
  31   11   46 1
  32   12   13 1
  33   12   18 2
  34   13   47 1
  35   13   48 1
  36   14   15 1
  37   14   49 1
  38   14   50 1
  39   15   16 1
  40   15   51 1
  41   15   52 1
  42   16   17 1
  43   16   22 1
  44   16   19 1
  45   17   18 1
  46   17   53 1
  47   17   54 1
  48   18   28 1
  49   19   30 1
  50   19   20 1
  51   19   55 1
  52   20   21 1
  53   20   23 1
  54   20   56 1
  55   21   22 1
  56   21   26 1
  57   21   57 1
  58   23   24 1
  59   23   58 1
  60   24   25 1
  61   24   59 1
  62   24   60 1
  63   25   26 1
  64   25   29 1
  65   25   61 1
  66   26   62 1
  67   26   63 1
  68   27   64 1
  69   27   65 1
  70   27   66 1
  71   28   67 1
  72   28   68 1
  73   28   69 1
  74   29   70 1
  75   29   71 1
  76   29   72 1
  77   30   73 1
  78   30   74 1
  79   30   75 1
  80   31   32 1
  81   32   76 1

#	End of record

