#	Name: ASD01040045
#	Creating user name:	WinNT
#	Creation time:	15. 06. 2019 18:58

#	Modifying user name:	WinNT
#	Modification time:	15. 06. 2019 18:58

#	Program:	/corina/corina34_cracker 3.40 0067  02.08.2006

@<TRIPOS>MOLECULE
ASD01040045
  50   52    0    0    0
SMALL
NO_CHARGES


@<TRIPOS>ATOM
   1 O1            -0.0163     1.3545     0.0095 O.3     
   2 C2             0.0021    -0.0041     0.0020 C.ar    
   3 C3             0.0230    -0.7032     1.2014 C.ar    
   4 C4             0.0417    -2.0820     1.1972 C.ar    
   5 C5             0.0392    -2.7740    -0.0132 C.ar    
   6 C6             0.0588    -4.2565    -0.0214 C.2     
   7 C7             1.2374    -4.9852     0.5059 C.ar    
   8 C8             1.1128    -5.7886     1.6387 C.ar    
   9 C9             2.2095    -6.4695     2.1233 C.ar    
  10 C10            3.4372    -6.3554     1.4848 C.ar    
  11 O11            4.5160    -7.0275     1.9647 O.3     
  12 C12            3.5646    -5.5561     0.3566 C.ar    
  13 C13            2.4715    -4.8730    -0.1332 C.ar    
  14 C14           -0.9877    -4.9371    -0.5048 C.2     
  15 C15           -0.9882    -6.4497    -0.5224 C.3     
  16 C16           -2.2835    -6.9441     0.1299 C.3     
  17 C17           -3.4825    -6.3053    -0.5731 C.3     
  18 C18           -4.7771    -6.8674     0.0175 C.3     
  19 C19           -5.9554    -6.3327    -0.7550 C.2     
  20 O20           -7.2021    -6.6934    -0.4125 O.3     
  21 C21           -8.2886    -6.1398    -1.2007 C.3     
  22 O22           -5.7778    -5.5793    -1.6828 O.2     
  23 C23           -3.4517    -4.7888    -0.3757 C.3     
  24 C24           -2.2027    -4.2134    -1.0417 C.3     
  25 C25            0.0177    -2.0690    -1.2160 C.ar    
  26 C26           -0.0058    -0.6904    -1.2049 C.ar    
  27 H27            0.8616     1.7598     0.0033 H       
  28 H28            0.0249    -0.1666     2.1387 H       
  29 H29            0.0586    -2.6252     2.1305 H       
  30 H30            0.1583    -5.8773     2.1362 H       
  31 H31            2.1136    -7.0920     3.0006 H       
  32 H32            4.6260    -7.9127     1.5913 H       
  33 H33            4.5209    -5.4694    -0.1378 H       
  34 H34            2.5702    -4.2553    -1.0136 H       
  35 H35           -0.9384    -6.8039    -1.5521 H       
  36 H36           -0.1288    -6.8226     0.0349 H       
  37 H37           -2.3449    -8.0287     0.0399 H       
  38 H38           -2.2892    -6.6656     1.1837 H       
  39 H39           -3.4414    -6.5329    -1.6383 H       
  40 H40           -4.7636    -7.9554    -0.0473 H       
  41 H41           -4.8606    -6.5667     1.0619 H       
  42 H42           -8.2692    -5.0521    -1.1326 H       
  43 H43           -8.1722    -6.4408    -2.2418 H       
  44 H44           -9.2399    -6.5108    -0.8193 H       
  45 H45           -4.3403    -4.3432    -0.8229 H       
  46 H46           -3.4305    -4.5656     0.6910 H       
  47 H47           -2.1253    -3.1500    -0.8150 H       
  48 H48           -2.2674    -4.3568    -2.1203 H       
  49 H49            0.0161    -2.6022    -2.1552 H       
  50 H50           -0.0228    -0.1437    -2.1362 H       
@<TRIPOS>BOND
   1    1    2 1
   2    1   27 1
   3    2    3 ar
   4    2   26 ar
   5    3    4 ar
   6    3   28 1
   7    4   29 1
   8    4    5 ar
   9    5    6 1
  10    5   25 ar
  11    6   14 2
  12    6    7 1
  13    7   13 ar
  14    7    8 ar
  15    8   30 1
  16    8    9 ar
  17    9   10 ar
  18    9   31 1
  19   10   12 ar
  20   10   11 1
  21   11   32 1
  22   12   13 ar
  23   12   33 1
  24   13   34 1
  25   14   15 1
  26   14   24 1
  27   15   35 1
  28   15   36 1
  29   15   16 1
  30   16   17 1
  31   16   37 1
  32   16   38 1
  33   17   39 1
  34   17   18 1
  35   17   23 1
  36   18   19 1
  37   18   40 1
  38   18   41 1
  39   19   22 2
  40   19   20 1
  41   20   21 1
  42   21   42 1
  43   21   43 1
  44   21   44 1
  45   23   24 1
  46   23   45 1
  47   23   46 1
  48   24   47 1
  49   24   48 1
  50   25   49 1
  51   25   26 ar
  52   26   50 1

#	End of record

