#	Name: ASD05300004
#	Creating user name:	WinNT
#	Creation time:	15. 06. 2019 20:58

#	Modifying user name:	WinNT
#	Modification time:	15. 06. 2019 20:58

#	Program:	/corina/corina34_cracker 3.40 0067  02.08.2006

@<TRIPOS>MOLECULE
ASD05300004
  47   49    0    0    0
SMALL
NO_CHARGES


@<TRIPOS>ATOM
   1 C1            -0.0178     1.4648     0.0101 C.3     
   2 N2             0.0021    -0.0041     0.0020 N.3     
   3 C3             0.7062    -0.5275     1.1802 C.3     
   4 C4             2.1851    -0.1430     1.1032 C.3     
   5 C5             2.9184    -0.6882     2.3303 C.3     
   6 N6             4.3345    -0.3200     2.2565 N.am    
   7 C7             5.1803    -0.6955     3.2363 C.2     
   8 O8             4.7692    -1.3381     4.1791 O.2     
   9 N9             6.4831    -0.3567     3.1684 N.am    
  10 C10            7.3330    -0.7322     4.1498 C.2     
  11 C11            7.5469    -2.0911     4.3887 C.2     
  12 C12            8.4506    -2.4965     5.3691 C.2     
  13 C13            9.1503    -1.5413     6.1058 C.2     
  14 C14            8.9306    -0.1854     5.8738 C.2     
  15 C15            8.0063     0.2232     4.9080 C.2     
  16 C16            7.7241     1.6516     4.7433 C.2     
  17 C17            7.4956     2.2574     3.6235 C.2     
  18 C18            7.4832     1.6279     2.2985 C.2     
  19 C19            6.9441     0.3541     2.1166 C.2     
  20 C20            6.8766    -0.1965     0.8337 C.2     
  21 C21            7.3874     0.5043    -0.2570 C.2     
  22 C22            7.9677     1.7582    -0.0681 C.2     
  23 C23            8.0175     2.3179     1.2068 C.2     
  24 C24           -1.3597    -0.5486    -0.0825 C.3     
  25 H25            1.0047     1.8421     0.0024 H       
  26 H26           -0.5450     1.8259    -0.8730 H       
  27 H27           -0.5280     1.8163     0.9069 H       
  28 H28            0.2673    -0.1040     2.0837 H       
  29 H29            0.6139    -1.6133     1.2060 H       
  30 H30            2.6240    -0.5665     0.1998 H       
  31 H31            2.2773     0.9428     1.0774 H       
  32 H32            2.4795    -0.2647     3.2337 H       
  33 H33            2.8262    -1.7739     2.3561 H       
  34 H34            4.6633     0.1940     1.5025 H       
  35 H35            7.0102    -2.8302     3.8124 H       
  36 H36            8.6084    -3.5480     5.5581 H       
  37 H37            9.8619    -1.8526     6.8562 H       
  38 H38            9.4762     0.5530     6.4425 H       
  39 H39            7.7047     2.2540     5.6395 H       
  40 H40            7.2965     3.3180     3.6678 H       
  41 H41            6.4278    -1.1679     0.6874 H       
  42 H42            7.3342     0.0768    -1.2473 H       
  43 H43            8.3799     2.2955    -0.9094 H       
  44 H44            8.4673     3.2891     1.3515 H       
  45 H45           -1.8584    -0.1448    -0.9636 H       
  46 H46           -1.3126    -1.6350    -0.1575 H       
  47 H47           -1.9185    -0.2700     0.8110 H       
@<TRIPOS>BOND
   1    1    2 1
   2    1   25 1
   3    1   26 1
   4    1   27 1
   5    2    3 1
   6    2   24 1
   7    3    4 1
   8    3   28 1
   9    3   29 1
  10    4    5 1
  11    4   30 1
  12    4   31 1
  13    5    6 1
  14    5   32 1
  15    5   33 1
  16    6    7 am
  17    6   34 1
  18    7    8 2
  19    7    9 am
  20    9   10 1
  21    9   19 1
  22   10   11 2
  23   10   15 1
  24   11   12 1
  25   11   35 1
  26   12   13 2
  27   12   36 1
  28   13   14 1
  29   13   37 1
  30   14   15 2
  31   14   38 1
  32   15   16 1
  33   16   17 2
  34   16   39 1
  35   17   18 1
  36   17   40 1
  37   18   19 2
  38   18   23 1
  39   19   20 1
  40   20   21 2
  41   20   41 1
  42   21   22 1
  43   21   42 1
  44   22   23 2
  45   22   43 1
  46   23   44 1
  47   24   45 1
  48   24   46 1
  49   24   47 1

#	End of record

