#	Name: ASD01812425
#	Creating user name:	WinNT
#	Creation time:	15. 06. 2019 19:28

#	Modifying user name:	WinNT
#	Modification time:	15. 06. 2019 19:28

#	Program:	/corina/corina34_cracker 3.40 0067  02.08.2006

@<TRIPOS>MOLECULE
ASD01812425
  57   60    0    0    0
SMALL
NO_CHARGES


@<TRIPOS>ATOM
   1 C1            -0.0213     1.4758     0.0486 C.ar    
   2 C2            -0.0898     0.1522     0.4394 C.ar    
   3 C3             1.0708    -0.5778     0.6167 C.ar    
   4 C4             2.3002     0.0127     0.4018 C.ar    
   5 C5             2.3785     1.3446     0.0070 C.ar    
   6 C6             1.2106     2.0771    -0.1674 C.ar    
   7 N7             3.6413     1.9064    -0.2067 N.3     
   8 C8             3.6104     3.3726    -0.1528 C.3     
   9 C9             2.4837     3.8725    -1.0662 C.3     
  10 O10            1.2438     3.3855    -0.5424 O.3     
  11 C11            4.6253     1.3654     0.7405 C.3     
  12 C12            5.9922     1.9058     0.4082 C.ar    
  13 C13            6.7595     1.2915    -0.5644 C.ar    
  14 C14            6.4747     3.0184     1.0723 C.ar    
  15 C15            7.7273     3.5160     0.7692 C.ar    
  16 C16            8.5014     2.8981    -0.2022 C.ar    
  17 C17            8.0128     1.7850    -0.8709 C.ar    
  18 N18            3.5022     6.0541    -1.6335 N.am    
  19 C19            2.4728     5.3793    -1.0843 C.2     
  20 C20            3.4916     7.5190    -1.6511 C.3     
  21 C21            4.3637     8.0214    -2.8035 C.3     
  22 C22            4.3527     9.5513    -2.8218 C.3     
  23 C23            4.9038    10.0812    -1.4965 C.3     
  24 C24            4.0316     9.5787    -0.3442 C.3     
  25 C25            4.0427     8.0489    -0.3258 C.3     
  26 O26            3.8491     7.5265    -4.0413 O.3     
  27 O27            1.5378     5.9848    -0.6047 O.2     
  28 O28            9.7337     3.3859    -0.5026 O.3     
  29 C29           10.4748     2.6991    -1.5131 C.3     
  30 H30           -0.9295     2.0428    -0.0935 H       
  31 H31           -1.0504    -0.3121     0.6068 H       
  32 H32            1.0157    -1.6116     0.9242 H       
  33 H33            3.2044    -0.5613     0.5410 H       
  34 H34            3.4228     3.6972     0.8707 H       
  35 H35            4.5646     3.7716    -0.4969 H       
  36 H36            2.6314     3.4927    -2.0772 H       
  37 H37            4.3544     1.6608     1.7541 H       
  38 H38            4.6376     0.2777     0.6700 H       
  39 H39            6.3787     0.4251    -1.0846 H       
  40 H40            5.8717     3.4990     1.8284 H       
  41 H41            8.1034     4.3854     1.2877 H       
  42 H42            8.6119     1.3046    -1.6303 H       
  43 H43            4.2500     5.5698    -2.0172 H       
  44 H44            2.4699     7.8733    -1.7875 H       
  45 H45            5.3855     7.6671    -2.6671 H       
  46 H46            4.9740     9.9093    -3.6428 H       
  47 H47            3.3310     9.9057    -2.9582 H       
  48 H48            5.9255     9.7269    -1.3602 H       
  49 H49            4.8959    11.1711    -1.5096 H       
  50 H50            4.4242     9.9563     0.5999 H       
  51 H51            3.0099     9.9331    -0.4806 H       
  52 H52            3.4213     7.6909     0.4951 H       
  53 H53            5.0644     7.6945    -0.1895 H       
  54 H54            4.3540     7.8062    -4.8171 H       
  55 H55           11.4375     3.1902    -1.6547 H       
  56 H56           10.6356     1.6656    -1.2066 H       
  57 H57            9.9163     2.7178    -2.4490 H       
@<TRIPOS>BOND
   1    1    2 ar
   2    1    6 ar
   3    1   30 1
   4    2    3 ar
   5    2   31 1
   6    3    4 ar
   7    3   32 1
   8    4    5 ar
   9    4   33 1
  10    5    7 1
  11    5    6 ar
  12    6   10 1
  13    7   11 1
  14    7    8 1
  15    8    9 1
  16    8   34 1
  17    8   35 1
  18    9   10 1
  19    9   19 1
  20    9   36 1
  21   11   12 1
  22   11   37 1
  23   11   38 1
  24   12   14 ar
  25   12   13 ar
  26   13   17 ar
  27   13   39 1
  28   14   15 ar
  29   14   40 1
  30   15   16 ar
  31   15   41 1
  32   16   17 ar
  33   16   28 1
  34   17   42 1
  35   18   19 am
  36   18   20 1
  37   18   43 1
  38   19   27 2
  39   20   21 1
  40   20   25 1
  41   20   44 1
  42   21   22 1
  43   21   26 1
  44   21   45 1
  45   22   23 1
  46   22   46 1
  47   22   47 1
  48   23   24 1
  49   23   48 1
  50   23   49 1
  51   24   25 1
  52   24   50 1
  53   24   51 1
  54   25   52 1
  55   25   53 1
  56   26   54 1
  57   28   29 1
  58   29   55 1
  59   29   56 1
  60   29   57 1

#	End of record

