#	Name: ASD01812600
#	Creating user name:	WinNT
#	Creation time:	15. 06. 2019 19:28

#	Modifying user name:	WinNT
#	Modification time:	15. 06. 2019 19:28

#	Program:	/corina/corina34_cracker 3.40 0067  02.08.2006

@<TRIPOS>MOLECULE
ASD01812600
  65   70    0    0    0
SMALL
NO_CHARGES


@<TRIPOS>ATOM
   1 C1            -0.0164     1.3602     0.0095 C.ar    
   2 C2             0.0021    -0.0041     0.0020 C.ar    
   3 C3             1.2063    -0.7004    -0.0132 C.ar    
   4 C4             2.3984    -0.0395    -0.0206 C.ar    
   5 C5             2.4169     1.3636    -0.0133 C.ar    
   6 C6             1.1890     2.0693     0.0018 C.ar    
   7 C7             3.6356     2.0739    -0.0206 C.ar    
   8 C8             3.6571     3.4281    -0.0131 C.ar    
   9 C9             2.4690     4.1752     0.0023 C.ar    
  10 C10            1.2194     3.5290     0.0099 C.ar    
  11 N11            0.0957     4.2654     0.0250 N.2     
  12 C12            0.1301     5.5661     0.0325 C.2     
  13 N13            1.2853     6.2770     0.0253 N.am    
  14 C14            2.4811     5.6437     0.0111 C.2     
  15 C15            4.9362     1.3128    -0.0367 C.3     
  16 C16            5.2942     0.9599    -1.4574 C.ar    
  17 O17            3.5270     6.2675     0.0053 O.2     
  18 C18            1.2380     7.7413     0.0341 C.3     
  19 C19            0.5129     8.2206     1.2932 C.3     
  20 C20            0.4635     9.7497     1.3024 C.3     
  21 C21           -0.2859    10.2433     0.0632 C.3     
  22 C22            0.4392     9.7640    -1.1959 C.3     
  23 C23            0.4886     8.2348    -1.2051 C.3     
  24 O24            1.2128     7.7596     2.4506 O.3     
  25 C25            6.0622     1.8261    -2.2220 C.ar    
  26 C26            6.3694     1.4643    -3.5225 C.ar    
  27 C27            5.8993     0.2494    -4.0160 C.ar    
  28 N28            5.1670    -0.5507    -3.2519 N.ar    
  29 C29            4.8651    -0.2332    -2.0095 C.ar    
  30 C30            6.2198    -0.1528    -5.4075 C.ar    
  31 C31            5.7569    -1.3678    -5.9198 C.ar    
  32 C32            6.0830    -1.6979    -7.2243 C.ar    
  33 C33            6.8491    -0.8233    -7.9721 C.ar    
  34 N34            7.2726     0.3183    -7.4613 N.ar    
  35 C35            6.9823     0.6774    -6.2265 C.ar    
  36 C36            7.2069    -1.1785    -9.3923 C.3     
  37 O37            8.0553     1.1833    -8.2639 O.3     
  38 H38           -0.9575     1.8900     0.0169 H       
  39 H39           -0.9297    -0.5501     0.0083 H       
  40 H40            1.1965    -1.7803    -0.0189 H       
  41 H41            3.3252    -0.5937    -0.0317 H       
  42 H42            4.6065     3.9428    -0.0187 H       
  43 H43           -0.8056     6.1053     0.0447 H       
  44 H44            5.7242     1.9308     0.3937 H       
  45 H45            4.8300     0.3996     0.5488 H       
  46 H46            2.2534     8.1376     0.0265 H       
  47 H47           -0.5025     7.8242     1.3008 H       
  48 H48           -0.0531    10.0912     2.1994 H       
  49 H49            1.4789    10.1461     1.2948 H       
  50 H50           -1.3013     9.8469     0.0708 H       
  51 H51           -0.3211    11.3327     0.0697 H       
  52 H52           -0.0947    10.1156    -2.0788 H       
  53 H53            1.4545    10.1603    -1.2035 H       
  54 H54            1.0052     7.8933    -2.1021 H       
  55 H55           -0.5268     7.8384    -1.1975 H       
  56 H56            0.8084     8.0270     3.2873 H       
  57 H57            6.4123     2.7619    -1.8120 H       
  58 H58            6.9648     2.1149    -4.1458 H       
  59 H59            4.2709    -0.9119    -1.4156 H       
  60 H60            5.1601    -2.0329    -5.3132 H       
  61 H61            5.7427    -2.6290    -7.6529 H       
  62 H62            7.3424     1.6214    -5.8450 H       
  63 H63            6.4388    -0.7993   -10.0663 H       
  64 H64            8.1675    -0.7312    -9.6477 H       
  65 H65            7.2733    -2.2621    -9.4901 H       
@<TRIPOS>BOND
   1    1    2 ar
   2    1    6 ar
   3    1   38 1
   4    2    3 ar
   5    2   39 1
   6    3    4 ar
   7    3   40 1
   8    4    5 ar
   9    4   41 1
  10    5    7 ar
  11    5    6 ar
  12    6   10 ar
  13    7   15 1
  14    7    8 ar
  15    8    9 ar
  16    8   42 1
  17    9   14 1
  18    9   10 ar
  19   10   11 1
  20   11   12 2
  21   12   13 1
  22   12   43 1
  23   13   14 am
  24   13   18 1
  25   14   17 2
  26   15   16 1
  27   15   44 1
  28   15   45 1
  29   16   25 ar
  30   16   29 ar
  31   18   19 1
  32   18   23 1
  33   18   46 1
  34   19   20 1
  35   19   24 1
  36   19   47 1
  37   20   21 1
  38   20   48 1
  39   20   49 1
  40   21   22 1
  41   21   50 1
  42   21   51 1
  43   22   23 1
  44   22   52 1
  45   22   53 1
  46   23   54 1
  47   23   55 1
  48   24   56 1
  49   25   26 ar
  50   25   57 1
  51   26   27 ar
  52   26   58 1
  53   27   28 ar
  54   27   30 1
  55   28   29 ar
  56   29   59 1
  57   30   31 ar
  58   30   35 ar
  59   31   32 ar
  60   31   60 1
  61   32   33 ar
  62   32   61 1
  63   33   34 ar
  64   33   36 1
  65   34   35 ar
  66   34   37 1
  67   35   62 1
  68   36   63 1
  69   36   64 1
  70   36   65 1

#	End of record

