#	Name: ASD03730755
#	Creating user name:	WinNT
#	Creation time:	15. 06. 2019 20:44

#	Modifying user name:	WinNT
#	Modification time:	15. 06. 2019 20:44

#	Program:	/corina/corina34_cracker 3.40 0067  02.08.2006

@<TRIPOS>MOLECULE
ASD03730755
  52   56    0    0    0
SMALL
NO_CHARGES


@<TRIPOS>ATOM
   1 O1            -0.0175     1.4359     0.0099 O.3     
   2 C2             0.0021    -0.0041     0.0020 C.3     
   3 C3             1.3443    -0.3163    -0.6737 C.3     
   4 C4             2.1585     0.9222    -0.4112 C.ar    
   5 C5             1.2615     1.9063     0.0003 C.ar    
   6 C6             1.7469     3.1700     0.3292 C.ar    
   7 C7             3.0928     3.4470     0.2399 C.ar    
   8 C8             3.9839     2.4618    -0.1813 C.ar    
   9 C9             3.5033     1.1940    -0.5069 C.ar    
  10 N10            2.1540    -2.4046    -1.1298 N.am    
  11 C11            1.9835    -1.5492    -0.1021 C.2     
  12 C12            1.1833    -0.5945    -2.1387 C.ar    
  13 C13            0.6719     0.1275    -3.1939 C.ar    
  14 C14            0.6627    -0.4162    -4.4660 C.ar    
  15 C15            1.1680    -1.6865    -4.6754 C.ar    
  16 C16            1.6807    -2.4140    -3.6217 C.ar    
  17 C17            1.6948    -1.8743    -2.3379 C.ar    
  18 O18            2.2872    -1.7380     1.0568 O.2     
  19 C19            8.0509     3.2971    -0.4638 C.ar    
  20 N20            7.2300     4.2476    -0.0631 N.ar    
  21 C21            5.9310     4.0249     0.0405 C.ar    
  22 C22            5.4339     2.7597    -0.2823 C.ar    
  23 C23            6.3400     1.7827    -0.7025 C.ar    
  24 N24            7.6234     2.0903    -0.7779 N.ar    
  25 C25            2.7521    -3.7352    -0.9957 C.3     
  26 C26            1.6552    -4.7598    -0.6989 C.3     
  27 C27            2.2798    -6.1494    -0.5588 C.3     
  28 C28            1.1830    -7.1740    -0.2621 C.3     
  29 C29            1.8075    -8.5637    -0.1220 C.3     
  30 H30           -0.0199    -0.3969     1.0185 H       
  31 H31           -0.8274    -0.3990    -0.5845 H       
  32 H32            1.0623     3.9383     0.6572 H       
  33 H33            3.4587     4.4302     0.4964 H       
  34 H34            4.1875     0.4249    -0.8336 H       
  35 H35            0.2772     1.1191    -3.0282 H       
  36 H36            0.2616     0.1499    -5.2937 H       
  37 H37            1.1607    -2.1109    -5.6684 H       
  38 H38            2.0727    -3.4058    -3.7928 H       
  39 H39            9.1058     3.5152    -0.5413 H       
  40 H40            5.2647     4.8085     0.3699 H       
  41 H41            5.9972     0.7919    -0.9618 H       
  42 H42            3.2568    -4.0020    -1.9242 H       
  43 H43            3.4737    -3.7285    -0.1788 H       
  44 H44            1.1504    -4.4930     0.2296 H       
  45 H45            0.9336    -4.7664    -1.5158 H       
  46 H46            2.7846    -6.4162    -1.4873 H       
  47 H47            3.0014    -6.1428     0.2581 H       
  48 H48            0.6782    -6.9072     0.6664 H       
  49 H49            0.4613    -7.1807    -1.0790 H       
  50 H50            1.0261    -9.2936     0.0895 H       
  51 H51            2.3123    -8.8304    -1.0505 H       
  52 H52            2.5291    -8.5570     0.6950 H       
@<TRIPOS>BOND
   1    1    2 1
   2    1    5 1
   3    2    3 1
   4    2   30 1
   5    2   31 1
   6    3    4 1
   7    3   11 1
   8    3   12 1
   9    4    5 ar
  10    4    9 ar
  11    5    6 ar
  12    6    7 ar
  13    6   32 1
  14    7    8 ar
  15    7   33 1
  16    8    9 ar
  17    8   22 1
  18    9   34 1
  19   10   11 am
  20   10   17 1
  21   10   25 1
  22   11   18 2
  23   12   13 ar
  24   12   17 ar
  25   13   14 ar
  26   13   35 1
  27   14   15 ar
  28   14   36 1
  29   15   16 ar
  30   15   37 1
  31   16   17 ar
  32   16   38 1
  33   19   20 ar
  34   19   24 ar
  35   19   39 1
  36   20   21 ar
  37   21   22 ar
  38   21   40 1
  39   22   23 ar
  40   23   24 ar
  41   23   41 1
  42   25   26 1
  43   25   42 1
  44   25   43 1
  45   26   27 1
  46   26   44 1
  47   26   45 1
  48   27   28 1
  49   27   46 1
  50   27   47 1
  51   28   29 1
  52   28   48 1
  53   28   49 1
  54   29   50 1
  55   29   51 1
  56   29   52 1

#	End of record

