#	Name: ASD01209339
#	Creating user name:	WinNT
#	Creation time:	15. 06. 2019 19:11

#	Modifying user name:	WinNT
#	Modification time:	15. 06. 2019 19:11

#	Program:	/corina/corina34_cracker 3.40 0067  02.08.2006

@<TRIPOS>MOLECULE
ASD01209339
  62   65    0    0    0
SMALL
NO_CHARGES


@<TRIPOS>ATOM
   1 S1             9.9777     6.1749     7.3160 S.3     
   2 C2             8.4024     5.8461     8.0583 C.2     
   3 N3             7.6448     5.2634     7.1221 N.am    
   4 C4             8.1465     5.0502     5.9171 C.2     
   5 C5             9.5351     5.4957     5.7372 C.2     
   6 O6             8.0730     6.1008     9.2010 O.2     
   7 O7             7.5070     4.5246     5.0253 O.2     
   8 C8            10.3013     5.4085     4.6221 C.2     
   9 C9             9.8201     4.6524     3.4567 C.ar    
  10 C10           10.0380     5.1395     2.1633 C.ar    
  11 C11            9.5835     4.4243     1.0758 C.ar    
  12 C12            8.9131     3.2275     1.2609 C.ar    
  13 C13            8.6930     2.7390     2.5371 C.ar    
  14 C14            9.1466     3.4388     3.6349 C.ar    
  15 C15            6.9184     2.1951     0.2099 C.3     
  16 C16            8.4198     2.4524     0.0663 C.3     
  17 C17            8.6794     3.2589    -1.2076 C.3     
  18 C18           10.5287     1.1102    -0.0442 C.ar    
  19 C19            9.1495     1.1364    -0.0148 C.ar    
  20 C20            8.4394    -0.0486    -0.0597 C.ar    
  21 C21            9.1148    -1.2498    -0.1306 C.ar    
  22 C22           10.5028    -1.2783    -0.1585 C.ar    
  23 C23           11.1756    -2.6243    -0.2279 C.3     
  24 C24           12.6257    -2.4771    -0.6840 C.3     
  25 C25           13.3034    -1.4170     0.1922 C.3     
  26 C26           12.7152    -0.0523    -0.1607 C.3     
  27 C27           11.2102    -0.0975    -0.1187 C.ar    
  28 C28           13.2169     0.9881     0.8426 C.3     
  29 C29           13.1691     0.3443    -1.5670 C.3     
  30 C30           11.1457    -3.2751     1.1564 C.3     
  31 C31           10.4228    -3.5140    -1.2191 C.3     
  32 H32            6.7341     4.9990     7.3258 H       
  33 H33           11.2652     5.8946     4.5898 H       
  34 H34           10.5606     6.0733     2.0172 H       
  35 H35            9.7506     4.7991     0.0767 H       
  36 H36            8.1686     1.8047     2.6731 H       
  37 H37            8.9784     3.0539     4.6299 H       
  38 H38            6.3906     3.1470     0.2686 H       
  39 H39            6.5616     1.6345    -0.6540 H       
  40 H40            6.7334     1.6206     1.1175 H       
  41 H41            9.7490     3.4422    -1.3100 H       
  42 H42            8.3226     2.6983    -2.0716 H       
  43 H43            8.1516     4.2108    -1.1489 H       
  44 H44           11.0827     2.0367    -0.0130 H       
  45 H45            7.3597    -0.0345    -0.0389 H       
  46 H46            8.5593    -2.1753    -0.1642 H       
  47 H47           13.1436    -3.4299    -0.5741 H       
  48 H48           12.6523    -2.1626    -1.7273 H       
  49 H49           13.1173    -1.6361     1.2436 H       
  50 H50           14.3766    -1.4146     0.0016 H       
  51 H51           14.3050     1.0376     0.8012 H       
  52 H52           12.7992     1.9637     0.5939 H       
  53 H53           12.9040     0.7043     1.8474 H       
  54 H54           12.8220    -0.3996    -2.2841 H       
  55 H55           12.7512     1.3180    -1.8226 H       
  56 H56           14.2574     0.3970    -1.5962 H       
  57 H57           10.1114    -3.3998     1.4771 H       
  58 H58           11.6318    -4.2497     1.1103 H       
  59 H59           11.6726    -2.6396     1.8682 H       
  60 H60           10.4331    -3.0493    -2.2050 H       
  61 H61           10.9068    -4.4893    -1.2721 H       
  62 H62            9.3922    -3.6375    -0.8864 H       
@<TRIPOS>BOND
   1    1    2 1
   2    1    5 1
   3    2    3 am
   4    2    6 2
   5    3    4 am
   6    3   32 1
   7    4    5 1
   8    4    7 2
   9    5    8 2
  10    8    9 1
  11    8   33 1
  12    9   10 ar
  13    9   14 ar
  14   10   11 ar
  15   10   34 1
  16   11   12 ar
  17   11   35 1
  18   12   13 ar
  19   12   16 1
  20   13   14 ar
  21   13   36 1
  22   14   37 1
  23   15   16 1
  24   15   38 1
  25   15   39 1
  26   15   40 1
  27   16   17 1
  28   16   19 1
  29   17   41 1
  30   17   42 1
  31   17   43 1
  32   18   19 ar
  33   18   27 ar
  34   18   44 1
  35   19   20 ar
  36   20   21 ar
  37   20   45 1
  38   21   22 ar
  39   21   46 1
  40   22   23 1
  41   22   27 ar
  42   23   24 1
  43   23   30 1
  44   23   31 1
  45   24   25 1
  46   24   47 1
  47   24   48 1
  48   25   26 1
  49   25   49 1
  50   25   50 1
  51   26   27 1
  52   26   28 1
  53   26   29 1
  54   28   51 1
  55   28   52 1
  56   28   53 1
  57   29   54 1
  58   29   55 1
  59   29   56 1
  60   30   57 1
  61   30   58 1
  62   30   59 1
  63   31   60 1
  64   31   61 1
  65   31   62 1

#	End of record

