#	Name: ASD01410357
#	Creating user name:	WinNT
#	Creation time:	15. 06. 2019 19:17

#	Modifying user name:	WinNT
#	Modification time:	15. 06. 2019 19:17

#	Program:	/corina/corina34_cracker 3.40 0067  02.08.2006

@<TRIPOS>MOLECULE
ASD01410357
  74   79    0    0    0
SMALL
NO_CHARGES


@<TRIPOS>ATOM
   1 N1             0.0812     1.5590     0.4246 N.pl3   
   2 C2             0.1224     0.1911     0.5698 C.2     
   3 C3            -1.1479    -0.2887     0.6640 C.2     
   4 C4            -2.0335     0.8101     0.5761 C.ar    
   5 C5            -1.2386     1.9663     0.4315 C.ar    
   6 C6            -3.4319     0.9214     0.6113 C.ar    
   7 C7            -4.0208     2.1429     0.5002 C.ar    
   8 C8            -3.2381     3.2981     0.3500 C.ar    
   9 C9            -1.8463     3.2056     0.3201 C.ar    
  10 C10           -2.3277    -1.9005     2.1336 C.3     
  11 C11           -2.7264    -3.3678     2.3042 C.3     
  12 C12           -3.5970    -3.8004     1.1228 C.3     
  13 C13           -2.8100    -3.6338    -0.1786 C.3     
  14 C14           -2.4113    -2.1666    -0.3493 C.3     
  15 C15           -1.5407    -1.7339     0.8321 C.3     
  16 C16            1.2451     2.4385     0.2912 C.3     
  17 C17            1.5967     2.5888    -1.1665 C.2     
  18 O18            0.9397     2.0175    -2.0108 O.2     
  19 C19            2.9963     3.5144    -2.9491 C.3     
  20 N20            2.6412     3.3581    -1.5320 N.am    
  21 C21            3.4462     4.0569    -0.5208 C.3     
  22 C22            4.4754     3.1586    -3.1290 C.3     
  23 C23            4.9203     3.6951    -0.7279 C.3     
  24 C24            5.3193     4.0044    -2.1727 C.3     
  25 C25            3.2373    -2.2198     1.0374 C.2     
  26 C26            3.4393    -1.3776     0.0190 C.2     
  27 S27            1.6645    -1.9180     1.7631 S.3     
  28 C28            1.3462    -0.6240     0.6152 C.2     
  29 C29            2.4097    -0.4951    -0.2251 C.2     
  30 C30            8.6341     4.4948    -3.6556 C.3     
  31 C31            7.1736     4.0143    -3.7424 C.3     
  32 N32            6.7411     3.6897    -2.3658 N.3     
  33 C33            7.5946     4.5104    -1.4691 C.3     
  34 C34            8.9848     4.4511    -2.1506 C.3     
  35 C35           -3.8885     4.6145     0.2308 C.2     
  36 O36           -3.2131     5.6165     0.1006 O.2     
  37 O37           -5.2327     4.7078     0.2660 O.3     
  38 H38           -4.0411     0.0370     0.7262 H       
  39 H39           -5.0974     2.2240     0.5274 H       
  40 H40           -1.2458     4.0958     0.2044 H       
  41 H41           -3.2245    -1.2821     2.0975 H       
  42 H42           -1.7074    -1.5923     2.9752 H       
  43 H43           -1.8295    -3.9861     2.3403 H       
  44 H44           -3.2870    -3.4864     3.2314 H       
  45 H45           -3.8810    -4.8457     1.2444 H       
  46 H46           -4.4939    -3.1820     1.0868 H       
  47 H47           -1.9131    -4.2522    -0.1426 H       
  48 H48           -3.4302    -3.9421    -1.0203 H       
  49 H49           -1.8506    -2.0479    -1.2765 H       
  50 H50           -3.3082    -1.5482    -0.3853 H       
  51 H51           -0.6438    -2.3523     0.8682 H       
  52 H52            1.0114     3.4168     0.7113 H       
  53 H53            2.0906     2.0060     0.8261 H       
  54 H54            2.3836     2.8468    -3.5550 H       
  55 H55            2.8288     4.5468    -3.2561 H       
  56 H56            3.3155     5.1335    -0.6298 H       
  57 H57            3.1305     3.7473     0.4754 H       
  58 H58            4.6248     2.1017    -2.9083 H       
  59 H59            4.7762     3.3622    -4.1567 H       
  60 H60            5.5378     4.2805    -0.0467 H       
  61 H61            5.0656     2.6331    -0.5298 H       
  62 H62            5.1505     5.0616    -2.3776 H       
  63 H63            3.9352    -2.9769     1.3632 H       
  64 H64            4.3446    -1.3879    -0.5697 H       
  65 H65            2.4438     0.2384    -1.0171 H       
  66 H66            9.2866     3.8251    -4.2158 H       
  67 H67            8.7205     5.5131    -4.0348 H       
  68 H68            6.5460     4.8059    -4.1518 H       
  69 H69            7.1118     3.1256    -4.3704 H       
  70 H70            7.2310     5.5371    -1.4255 H       
  71 H71            7.6363     4.0733    -0.4714 H       
  72 H72            9.4974     3.5221    -1.9009 H       
  73 H73            9.5890     5.3138    -1.8701 H       
  74 H74           -5.6136     5.5928     0.1840 H       
@<TRIPOS>BOND
   1    1    2 1
   2    1   16 1
   3    1    5 1
   4    2    3 2
   5    2   28 1
   6    3    4 1
   7    3   15 1
   8    4    5 ar
   9    4    6 ar
  10    5    9 ar
  11    6    7 ar
  12    6   38 1
  13    7    8 ar
  14    7   39 1
  15    8    9 ar
  16    8   35 1
  17    9   40 1
  18   10   11 1
  19   10   15 1
  20   10   41 1
  21   10   42 1
  22   11   12 1
  23   11   43 1
  24   11   44 1
  25   12   13 1
  26   12   45 1
  27   12   46 1
  28   13   14 1
  29   13   47 1
  30   13   48 1
  31   14   15 1
  32   14   49 1
  33   14   50 1
  34   15   51 1
  35   16   17 1
  36   16   52 1
  37   16   53 1
  38   17   18 2
  39   17   20 am
  40   19   20 1
  41   19   22 1
  42   19   54 1
  43   19   55 1
  44   20   21 1
  45   21   23 1
  46   21   56 1
  47   21   57 1
  48   22   24 1
  49   22   58 1
  50   22   59 1
  51   23   24 1
  52   23   60 1
  53   23   61 1
  54   24   32 1
  55   24   62 1
  56   25   26 2
  57   25   27 1
  58   25   63 1
  59   26   29 1
  60   26   64 1
  61   27   28 1
  62   28   29 2
  63   29   65 1
  64   30   31 1
  65   30   34 1
  66   30   66 1
  67   30   67 1
  68   31   32 1
  69   31   68 1
  70   31   69 1
  71   32   33 1
  72   33   34 1
  73   33   70 1
  74   33   71 1
  75   34   72 1
  76   34   73 1
  77   35   36 2
  78   35   37 1
  79   37   74 1

#	End of record

