#	Name: ASD02690076
#	Creating user name:	WinNT
#	Creation time:	15. 06. 2019 20:26

#	Modifying user name:	WinNT
#	Modification time:	15. 06. 2019 20:26

#	Program:	/corina/corina34_cracker 3.40 0067  02.08.2006

@<TRIPOS>MOLECULE
ASD02690076
  51   54    0    0    0
SMALL
NO_CHARGES


@<TRIPOS>ATOM
   1 C1            -0.0037     1.4595    -0.1178 C.3     
   2 N2             0.0021    -0.0041     0.0020 N.3     
   3 C3            -1.3562    -0.5483    -0.1275 C.3     
   4 C4            -1.9362    -0.1656    -1.4876 C.3     
   5 C5             1.4362     1.9778    -0.1242 C.3     
   6 C6             2.1311     1.5561     1.1734 C.3     
   7 C7             2.0807     0.0308     1.2976 C.3     
   8 C8            -3.2305    -0.8951    -1.7359 C.ar    
   9 C9             3.5672     2.0121     1.1468 C.2     
  10 C10            4.2870     2.2382     2.4020 C.2     
  11 C11            5.5971     2.6539     2.5477 C.2     
  12 C12            0.6221    -0.4312     1.2628 C.3     
  13 C13           -1.3107    -2.0780    -0.0343 C.3     
  14 C14           -2.7434    -2.5969     0.0707 C.3     
  15 C15           -3.5991    -2.0138    -1.0233 C.ar    
  16 C16           -4.8040    -2.6442    -1.3072 C.ar    
  17 C17           -5.6346    -2.1566    -2.2946 C.ar    
  18 C18           -5.2663    -1.0307    -3.0075 C.ar    
  19 O19            4.1271     2.1919     0.0854 O.2     
  20 C20           -4.0697    -0.4041    -2.7280 C.ar    
  21 O21           -0.6895    -2.6133    -1.2046 O.3     
  22 C22            3.7630     2.0760     3.7647 C.2     
  23 C23            4.7694     2.3912     4.5971 C.2     
  24 N24            5.8667     2.7369     3.8627 N.pl3   
  25 C25            7.1568     3.1406     4.4273 C.3     
  26 H26           -0.4970     1.7459    -1.0467 H       
  27 H27           -0.5413     1.8909     0.7266 H       
  28 H28           -1.9884    -0.1502     0.6663 H       
  29 H29           -2.1190     0.9087    -1.5109 H       
  30 H30           -1.2218    -0.4250    -2.2688 H       
  31 H31            1.9704     1.5576    -0.9763 H       
  32 H32            1.4311     3.0654    -0.1974 H       
  33 H33            1.6208     2.0087     2.0236 H       
  34 H34            2.6251    -0.4201     0.4679 H       
  35 H35            2.5362    -0.2728     2.2402 H       
  36 H36            6.2852     2.8735     1.7448 H       
  37 H37            0.0817     0.0091     2.1007 H       
  38 H38            0.5835    -1.5180     1.3366 H       
  39 H39           -0.7469    -2.3754     0.8499 H       
  40 H40           -2.7395    -3.6833    -0.0166 H       
  41 H41           -3.1573    -2.3161     1.0391 H       
  42 H42           -5.0925    -3.5235    -0.7506 H       
  43 H43           -6.5697    -2.6524    -2.5098 H       
  44 H44           -5.9134    -0.6429    -3.7804 H       
  45 H45           -3.7826     0.4752    -3.2856 H       
  46 H46           -0.6280    -3.5783    -1.2109 H       
  47 H47            2.7665     1.7654     4.0424 H       
  48 H48            4.7176     2.3761     5.6758 H       
  49 H49            7.7843     2.2602     4.5658 H       
  50 H50            7.6500     3.8348     3.7469 H       
  51 H51            6.9961     3.6272     5.3894 H       
@<TRIPOS>BOND
   1    1    2 1
   2    1    5 1
   3    1   26 1
   4    1   27 1
   5    2    3 1
   6    2   12 1
   7    3    4 1
   8    3   13 1
   9    3   28 1
  10    4    8 1
  11    4   29 1
  12    4   30 1
  13    5    6 1
  14    5   31 1
  15    5   32 1
  16    6    9 1
  17    6    7 1
  18    6   33 1
  19    7   12 1
  20    7   34 1
  21    7   35 1
  22    8   15 ar
  23    8   20 ar
  24    9   10 1
  25    9   19 2
  26   10   11 2
  27   10   22 1
  28   11   24 1
  29   11   36 1
  30   12   37 1
  31   12   38 1
  32   13   14 1
  33   13   21 1
  34   13   39 1
  35   14   15 1
  36   14   40 1
  37   14   41 1
  38   15   16 ar
  39   16   17 ar
  40   16   42 1
  41   17   18 ar
  42   17   43 1
  43   18   20 ar
  44   18   44 1
  45   20   45 1
  46   21   46 1
  47   22   23 2
  48   22   47 1
  49   23   24 1
  50   23   48 1
  51   24   25 1
  52   25   49 1
  53   25   50 1
  54   25   51 1

#	End of record

