#	Name: ASD05430705
#	Creating user name:	WinNT
#	Creation time:	15. 06. 2019 21:00

#	Modifying user name:	WinNT
#	Modification time:	15. 06. 2019 21:00

#	Program:	/corina/corina34_cracker 3.40 0067  02.08.2006

@<TRIPOS>MOLECULE
ASD05430705
  30   31    0    0    0
SMALL
NO_CHARGES


@<TRIPOS>ATOM
   1 C1            -0.0184     1.3643     0.0005 C.2     
   2 C2             0.0038    -0.0010    -0.0014 C.2     
   3 C3            -1.2007    -0.7155     0.0161 C.2     
   4 N4            -2.3470    -0.0898     0.0343 N.2     
   5 N5            -2.4033     1.3085     0.0367 N.am    
   6 C6            -1.2658     2.0329     0.0257 C.2     
   7 C7            -5.2456     2.5378    -1.8343 C.ar    
   8 C8            -4.4939     1.5919    -1.1625 C.ar    
   9 C9            -3.7014     1.9873     0.0568 C.3     
  10 C10           -5.9731     2.1763    -2.9523 C.ar    
  11 C11           -5.9489     0.8661    -3.3995 C.ar    
  12 C12           -5.1957    -0.0804    -2.7258 C.ar    
  13 C13           -4.4690     0.2834    -1.6081 C.ar    
  14 F14           -6.6600     0.5115    -4.4921 F       
  15 C15           -4.4689     1.5829     1.3171 C.3     
  16 O16            1.1413     2.0715    -0.0159 O.3     
  17 O17           -1.3115     3.2527     0.0282 O.2     
  18 N18            1.2957    -0.7230    -0.0224 N.pl3   
  19 O19            1.8846    -0.9480     1.0197 O.2     
  20 O20            1.7699    -1.0920    -1.0819 O.2     
  21 H21           -1.1813    -1.7953     0.0142 H       
  22 H22           -5.2678     3.5587    -1.4827 H       
  23 H23           -3.5472     3.0663     0.0557 H       
  24 H24           -6.5605     2.9154    -3.4768 H       
  25 H25           -5.1758    -1.1026    -3.0739 H       
  26 H26           -3.8811    -0.4546    -1.0826 H       
  27 H27           -3.8957     1.8689     2.1990 H       
  28 H28           -5.4347     2.0880     1.3320 H       
  29 H29           -4.6230     0.5039     1.3181 H       
  30 H30            1.9362     1.5250     0.0512 H       
@<TRIPOS>BOND
   1    1    2 2
   2    1   16 1
   3    1    6 1
   4    2    3 1
   5    2   18 1
   6    3    4 2
   7    3   21 1
   8    4    5 1
   9    5    6 am
  10    5    9 1
  11    6   17 2
  12    7    8 ar
  13    7   10 ar
  14    7   22 1
  15    8    9 1
  16    8   13 ar
  17    9   15 1
  18    9   23 1
  19   10   11 ar
  20   10   24 1
  21   11   12 ar
  22   11   14 1
  23   12   13 ar
  24   12   25 1
  25   13   26 1
  26   15   27 1
  27   15   28 1
  28   15   29 1
  29   16   30 1
  30   18   19 2
  31   18   20 2

#	End of record

