#	Name: ASD03430973
#	Creating user name:	WinNT
#	Creation time:	15. 06. 2019 20:41

#	Modifying user name:	WinNT
#	Modification time:	15. 06. 2019 20:41

#	Program:	/corina/corina34_cracker 3.40 0067  02.08.2006

@<TRIPOS>MOLECULE
ASD03430973
  68   75    0    0    0
SMALL
NO_CHARGES


@<TRIPOS>ATOM
   1 O1            -1.4071     2.7876     2.9102 O.3     
   2 C2            -1.8031     1.6242     3.6446 C.3     
   3 C3            -0.6113     1.1640     4.4950 C.3     
   4 O4             0.4795     0.8678     3.6165 O.3     
   5 C5             0.7482     1.7823     2.6441 C.ar    
   6 C6            -0.1973     2.7369     2.2877 C.ar    
   7 C7             1.9793     1.7574     2.0108 C.ar    
   8 C8             2.2772     2.6775     1.0108 C.ar    
   9 C9             1.3151     3.6151     0.6475 C.ar    
  10 C10            0.0920     3.6480     1.2835 C.ar    
  11 O11            3.4228     2.8405     0.2888 O.3     
  12 C12            1.9097     4.4303    -0.4694 C.3     
  13 C13            3.1329     3.6066    -0.8959 C.3     
  14 N14            0.8179     5.9546    -1.7762 N.am    
  15 C15            0.9474     4.6238    -1.6066 C.2     
  16 C16            2.2894     5.8129    -0.0312 C.ar    
  17 C17            3.1260     6.3104     0.9588 C.ar    
  18 C18            3.2708     7.6886     1.1165 C.ar    
  19 C19            2.5806     8.5489     0.2858 C.ar    
  20 C20            1.7481     8.0539    -0.6973 C.ar    
  21 C21            1.5926     6.6791    -0.8664 C.ar    
  22 O22            0.3957     3.7536    -2.2465 O.2     
  23 C23           -0.0351     6.5700    -2.7960 C.3     
  24 C24           -1.4139     6.7925    -2.2299 C.ar    
  25 C25           -1.7389     8.0210    -1.6858 C.ar    
  26 C26           -3.0101     8.2155    -1.1681 C.ar    
  27 C27           -3.9110     7.1624    -1.2173 C.ar    
  28 C28           -3.5146     5.9627    -1.7767 C.ar    
  29 N29           -2.2981     5.8150    -2.2643 N.ar    
  30 C30            3.8635     5.3785     1.8469 C.ar    
  31 C31            3.6162     5.3784     3.2186 C.ar    
  32 C32            4.3032     4.5112     4.0417 C.ar    
  33 C33            5.2407     3.6386     3.5052 C.ar    
  34 C34            5.4896     3.6369     2.1391 C.ar    
  35 C35            4.8010     4.4976     1.3104 C.ar    
  36 O36            5.9161     2.7853     4.3184 O.3     
  37 C37            7.1016     3.2014     4.8361 C.ar    
  38 C38            7.5371     4.5008     4.6189 C.ar    
  39 C39            8.7426     4.9212     5.1462 C.ar    
  40 C40            9.5155     4.0482     5.8895 C.ar    
  41 C41            9.0839     2.7528     6.1074 C.ar    
  42 C42            7.8762     2.3292     5.5876 C.ar    
  43 H43           -2.6450     1.8674     4.2927 H       
  44 H44           -2.0883     0.8320     2.9523 H       
  45 H45           -0.3231     1.9581     5.1839 H       
  46 H46           -0.8839     0.2705     5.0567 H       
  47 H47            2.7137     1.0185     2.2954 H       
  48 H48           -0.6432     4.3860     0.9984 H       
  49 H49            3.9689     4.2584    -1.1494 H       
  50 H50            2.8856     2.9503    -1.7303 H       
  51 H51            3.9198     8.0812     1.8853 H       
  52 H52            2.6927     9.6162     0.4065 H       
  53 H53            1.2133     8.7369    -1.3407 H       
  54 H54            0.3921     7.5260    -3.0985 H       
  55 H55           -0.0998     5.9107    -3.6616 H       
  56 H56           -1.0116     8.8190    -1.6639 H       
  57 H57           -3.2920     9.1645    -0.7365 H       
  58 H58           -4.9098     7.2783    -0.8231 H       
  59 H59           -4.2103     5.1377    -1.8188 H       
  60 H60            2.8873     6.0571     3.6365 H       
  61 H61            4.1122     4.5109     5.1047 H       
  62 H62            6.2198     2.9576     1.7246 H       
  63 H63            4.9914     4.4924     0.2473 H       
  64 H64            6.9341     5.1829     4.0377 H       
  65 H65            9.0820     5.9325     4.9774 H       
  66 H66           10.4581     4.3786     6.3003 H       
  67 H67            9.6896     2.0728     6.6881 H       
  68 H68            7.5374     1.3186     5.7618 H       
@<TRIPOS>BOND
   1    1    2 1
   2    1    6 1
   3    2    3 1
   4    2   43 1
   5    2   44 1
   6    3    4 1
   7    3   45 1
   8    3   46 1
   9    4    5 1
  10    5    6 ar
  11    5    7 ar
  12    6   10 ar
  13    7    8 ar
  14    7   47 1
  15    8    9 ar
  16    8   11 1
  17    9   10 ar
  18    9   12 1
  19   10   48 1
  20   11   13 1
  21   12   13 1
  22   12   15 1
  23   12   16 1
  24   13   49 1
  25   13   50 1
  26   14   15 am
  27   14   21 1
  28   14   23 1
  29   15   22 2
  30   16   17 ar
  31   16   21 ar
  32   17   18 ar
  33   17   30 1
  34   18   19 ar
  35   18   51 1
  36   19   20 ar
  37   19   52 1
  38   20   21 ar
  39   20   53 1
  40   23   24 1
  41   23   54 1
  42   23   55 1
  43   24   25 ar
  44   24   29 ar
  45   25   26 ar
  46   25   56 1
  47   26   27 ar
  48   26   57 1
  49   27   28 ar
  50   27   58 1
  51   28   29 ar
  52   28   59 1
  53   30   31 ar
  54   30   35 ar
  55   31   32 ar
  56   31   60 1
  57   32   33 ar
  58   32   61 1
  59   33   34 ar
  60   33   36 1
  61   34   35 ar
  62   34   62 1
  63   35   63 1
  64   36   37 1
  65   37   38 ar
  66   37   42 ar
  67   38   39 ar
  68   38   64 1
  69   39   40 ar
  70   39   65 1
  71   40   41 ar
  72   40   66 1
  73   41   42 ar
  74   41   67 1
  75   42   68 1

#	End of record

