#	Name: ASD01310043
#	Creating user name:	WinNT
#	Creation time:	15. 06. 2019 19:15

#	Modifying user name:	WinNT
#	Modification time:	15. 06. 2019 19:15

#	Program:	/corina/corina34_cracker 3.40 0067  02.08.2006

@<TRIPOS>MOLECULE
ASD01310043
  46   50    0    0    0
SMALL
NO_CHARGES


@<TRIPOS>ATOM
   1 C1            -0.0182     1.4933     0.0103 C.3     
   2 C2             0.0021    -0.0041     0.0020 C.ar    
   3 C3             0.0469    -0.7199    -1.1886 C.ar    
   4 C4            -0.1941     1.2652    -2.4785 C.2     
   5 C5            -0.0217    -0.6842     1.2042 C.ar    
   6 C6             0.0094    -2.0797     1.2244 C.ar    
   7 C7             0.0657    -2.7920     0.0233 C.ar    
   8 C8             0.0841    -2.1112    -1.1728 C.ar    
   9 N9             1.2886     3.4092    -0.5732 N.am    
  10 C10            1.4192     2.0560    -0.0005 C.3     
  11 C11           -0.6131     2.0746    -1.2850 C.3     
  12 C12            0.0627     3.4624    -1.3833 C.3     
  13 N13            0.0515    -0.0480    -2.4089 N.am    
  14 O14           -0.0735     1.8243    -3.5480 O.2     
  15 S15            2.3472     4.6614    -0.3415 S.o2    
  16 O16            1.6121     5.8558    -0.5700 O.2     
  17 O17            3.0301     4.3898     0.8747 O.2     
  18 C18            3.5543     4.5675    -1.6216 C.ar    
  19 C19            4.7040     3.8233    -1.4322 C.ar    
  20 C20            3.3472     5.2334    -2.8151 C.ar    
  21 C21            5.4556     4.4159    -3.6303 C.ar    
  22 C22            5.6539     3.7465    -2.4336 C.ar    
  23 C23            4.2947     5.1606    -3.8233 C.ar    
  24 O24            4.3326     5.7120    -5.0714 O.3     
  25 C25            5.7095     5.6328    -5.4851 C.3     
  26 O26            6.2204     4.5000    -4.7578 O.3     
  27 H27           -0.5604     1.8580     0.8827 H       
  28 H28           -1.6986     2.1515    -1.2223 H       
  29 C29            0.3308    -0.7933    -3.6389 C.3     
  30 C30           -0.0159    -2.7799     2.4732 C.1     
  31 N31           -0.0360    -3.3354     3.4640 N.1     
  32 H32           -0.0641    -0.1339     2.1326 H       
  33 H33            0.0950    -3.8716     0.0336 H       
  34 H34            0.1270    -2.6587    -2.1027 H       
  35 H35            1.8134     2.1097     1.0143 H       
  36 H36            2.0637     1.4392    -0.6269 H       
  37 H37           -0.6066     4.2291    -0.9931 H       
  38 H38            0.3136     3.6798    -2.4215 H       
  39 H39            4.8605     3.3012    -0.4999 H       
  40 H40            2.4461     5.8105    -2.9619 H       
  41 H41            6.5513     3.1647    -2.2828 H       
  42 H42            5.7774     5.4606    -6.5592 H       
  43 H43            6.2458     6.5401    -5.2069 H       
  44 H44           -0.6031    -1.1719    -4.0543 H       
  45 H45            0.8095    -0.1336    -4.3627 H       
  46 H46            0.9939    -1.6289    -3.4147 H       
@<TRIPOS>BOND
   1    1    2 1
   2    1   10 1
   3    1   11 1
   4    1   27 1
   5    2    3 ar
   6    2    5 ar
   7    3   13 1
   8    3    8 ar
   9    4   11 1
  10    4   14 2
  11    4   13 am
  12    5    6 ar
  13    5   32 1
  14    6    7 ar
  15    6   30 1
  16    7    8 ar
  17    7   33 1
  18    8   34 1
  19    9   10 1
  20    9   12 1
  21    9   15 am
  22   10   35 1
  23   10   36 1
  24   11   12 1
  25   11   28 1
  26   12   37 1
  27   12   38 1
  28   13   29 1
  29   15   16 2
  30   15   17 2
  31   15   18 1
  32   18   20 ar
  33   18   19 ar
  34   19   22 ar
  35   19   39 1
  36   20   23 ar
  37   20   40 1
  38   21   22 ar
  39   21   26 1
  40   21   23 ar
  41   22   41 1
  42   23   24 1
  43   24   25 1
  44   25   26 1
  45   25   42 1
  46   25   43 1
  47   29   44 1
  48   29   45 1
  49   29   46 1
  50   30   31 3

#	End of record

