#	Name: ASD01912267
#	Creating user name:	WinNT
#	Creation time:	15. 06. 2019 19:59

#	Modifying user name:	WinNT
#	Modification time:	15. 06. 2019 19:59

#	Program:	/corina/corina34_cracker 3.40 0067  02.08.2006

@<TRIPOS>MOLECULE
ASD01912267
  53   55    0    0    0
SMALL
NO_CHARGES


@<TRIPOS>ATOM
   1 N1            -0.0178     1.4643     0.0101 N.am    
   2 C2             0.0021    -0.0041     0.0020 C.3     
   3 C3             0.7747    -0.4806    -1.2345 C.3     
   4 C4             2.0883     0.2677    -1.2953 C.2     
   5 C5             2.0586     1.7791    -1.2346 C.3     
   6 C6             1.2537     2.1990     0.0019 C.3     
   7 C7            -1.1897     2.1301     0.0193 C.2     
   8 O8            -2.2377     1.5153     0.0209 O.2     
   9 O9            -1.1990     3.4764     0.0267 O.3     
  10 C10            3.2432    -0.3884    -1.3992 C.2     
  11 C11            4.4764     0.3372    -1.4554 C.1     
  12 C12            5.4874     0.9321    -1.5014 C.1     
  13 C13            6.7207     1.6578    -1.5576 C.ar    
  14 C14            7.9297     0.9645    -1.6667 C.ar    
  15 C15            9.1114     1.6804    -1.7197 C.ar    
  16 C16            9.0508     3.0666    -1.6623 C.ar    
  17 C17            7.8208     3.6894    -1.5545 C.ar    
  18 N18            6.7075     2.9869    -1.5111 N.ar    
  19 C19            7.7528     5.1936    -1.4920 C.3     
  20 N20           -4.1439     6.3882    -0.6794 N.3     
  21 C21           -3.7477     6.1771     0.7187 C.3     
  22 C22           -2.3916     5.4693     0.7648 C.3     
  23 C23           -2.4972     4.1266     0.0364 C.3     
  24 C24           -2.9580     4.3707    -1.4033 C.3     
  25 C25           -4.2977     5.1104    -1.3865 C.3     
  26 C26           -5.3735     7.1876    -0.7632 C.3     
  27 H27            0.4951    -0.3678     0.9035 H       
  28 H28           -1.0191    -0.3831    -0.0367 H       
  29 H29            0.9654    -1.5510    -1.1581 H       
  30 H30            0.1929    -0.2742    -2.1328 H       
  31 H31            3.0757     2.1634    -1.1583 H       
  32 H32            1.5834     2.1732    -2.1330 H       
  33 H33            1.0565     3.2703    -0.0369 H       
  34 H34            1.8186     1.9618     0.9034 H       
  35 H35            3.2492    -1.4676    -1.4411 H       
  36 H36            7.9405    -0.1147    -1.7085 H       
  37 H37           10.0609     1.1726    -1.8036 H       
  38 H38            9.9567     3.6533    -1.7011 H       
  39 H39            7.6665     5.5956    -2.5015 H       
  40 H40            6.8843     5.4940    -0.9059 H       
  41 H41            8.6583     5.5791    -1.0235 H       
  42 H42           -3.6721     7.1399     1.2241 H       
  43 H43           -4.4955     5.5621     1.2192 H       
  44 H44           -1.6403     6.0901     0.2765 H       
  45 H45           -2.1051     5.2988     1.8025 H       
  46 H46           -3.2194     3.4904     0.5481 H       
  47 H47           -2.2157     4.9742    -1.9256 H       
  48 H48           -3.0762     3.4153    -1.9145 H       
  49 H49           -5.0430     4.5004    -0.8761 H       
  50 H50           -4.6216     5.2984    -2.4101 H       
  51 H51           -5.2082     8.1586    -0.2964 H       
  52 H52           -5.6444     7.3289    -1.8095 H       
  53 H53           -6.1803     6.6684    -0.2459 H       
@<TRIPOS>BOND
   1    1    2 1
   2    1    6 1
   3    1    7 am
   4    2    3 1
   5    2   27 1
   6    2   28 1
   7    3    4 1
   8    3   29 1
   9    3   30 1
  10    4    5 1
  11    4   10 2
  12    5    6 1
  13    5   31 1
  14    5   32 1
  15    6   33 1
  16    6   34 1
  17    7    8 2
  18    7    9 1
  19    9   23 1
  20   10   11 1
  21   10   35 1
  22   11   12 3
  23   12   13 1
  24   13   14 ar
  25   13   18 ar
  26   14   15 ar
  27   14   36 1
  28   15   16 ar
  29   15   37 1
  30   16   17 ar
  31   16   38 1
  32   17   18 ar
  33   17   19 1
  34   19   39 1
  35   19   40 1
  36   19   41 1
  37   20   21 1
  38   20   25 1
  39   20   26 1
  40   21   22 1
  41   21   42 1
  42   21   43 1
  43   22   23 1
  44   22   44 1
  45   22   45 1
  46   23   24 1
  47   23   46 1
  48   24   25 1
  49   24   47 1
  50   24   48 1
  51   25   49 1
  52   25   50 1
  53   26   51 1
  54   26   52 1
  55   26   53 1

#	End of record

