#	Name: ASD05503022
#	Creating user name:	WinNT
#	Creation time:	15. 06. 2019 21:01

#	Modifying user name:	WinNT
#	Modification time:	15. 06. 2019 21:01

#	Program:	/corina/corina34_cracker 3.40 0067  02.08.2006

@<TRIPOS>MOLECULE
ASD05503022
  39   40    0    0    0
SMALL
NO_CHARGES


@<TRIPOS>ATOM
   1 C1            -0.1506     1.3616     0.4412 C.ar    
   2 C2            -0.0933    -0.0174     0.2844 C.ar    
   3 C3             1.1368    -0.6545     0.2036 C.ar    
   4 C4             2.3059     0.0887     0.2797 C.ar    
   5 C5             2.2417     1.4679     0.4366 C.ar    
   6 C6             1.0156     2.0990     0.5166 C.ar    
   7 N7            -1.2747    -0.7633     0.2086 N.am    
   8 C8            -1.3348    -1.8515    -0.5844 C.2     
   9 C9            -2.5639    -2.7235    -0.5752 C.3     
  10 O10           -0.3998    -2.1290    -1.3053 O.2     
  11 C11           -2.3749    -3.8815    -1.5571 C.3     
  12 C12           -3.6227    -4.7668    -1.5478 C.3     
  13 N13            3.5476    -0.5496     0.1992 N.am    
  14 C14            4.5808     0.0611    -0.4141 C.2     
  15 C15            5.8621    -0.6532    -0.5904 C.ar    
  16 O16            4.4584     1.1997    -0.8222 O.2     
  17 C17            6.9342    -0.0231    -1.2253 C.ar    
  18 C18            8.1275    -0.6949    -1.3870 C.ar    
  19 C19            8.2639    -1.9921    -0.9209 C.ar    
  20 C20            7.2038    -2.6226    -0.2907 C.ar    
  21 C21            6.0075    -1.9589    -0.1176 C.ar    
  22 Cl22           9.7694    -2.8314    -1.1281 Cl      
  23 H23           -1.1077     1.8585     0.4996 H       
  24 H24            1.1840    -1.7266     0.0821 H       
  25 H25            3.1514     2.0471     0.4959 H       
  26 H26            0.9683     3.1710     0.6388 H       
  27 H27           -2.0504    -0.4972     0.7266 H       
  28 H28           -2.7208    -3.1197     0.4280 H       
  29 H29           -3.4306    -2.1330    -0.8723 H       
  30 H30           -2.2180    -3.4853    -2.5603 H       
  31 H31           -1.5083    -4.4721    -1.2600 H       
  32 H32           -3.7797    -5.1630    -0.5446 H       
  33 H33           -4.4894    -4.1763    -1.8449 H       
  34 H34           -3.4881    -5.5918    -2.2473 H       
  35 H35            3.6653    -1.4319     0.5847 H       
  36 H36            6.8290     0.9882    -1.5894 H       
  37 H37            8.9574    -0.2087    -1.8782 H       
  38 H38            7.3159    -3.6343     0.0703 H       
  39 H39            5.1816    -2.4515     0.3740 H       
@<TRIPOS>BOND
   1    1    2 ar
   2    1    6 ar
   3    1   23 1
   4    2    3 ar
   5    2    7 1
   6    3    4 ar
   7    3   24 1
   8    4    5 ar
   9    4   13 1
  10    5    6 ar
  11    5   25 1
  12    6   26 1
  13    7    8 am
  14    7   27 1
  15    8    9 1
  16    8   10 2
  17    9   11 1
  18    9   28 1
  19    9   29 1
  20   11   12 1
  21   11   30 1
  22   11   31 1
  23   12   32 1
  24   12   33 1
  25   12   34 1
  26   13   14 am
  27   13   35 1
  28   14   15 1
  29   14   16 2
  30   15   17 ar
  31   15   21 ar
  32   17   18 ar
  33   17   36 1
  34   18   19 ar
  35   18   37 1
  36   19   20 ar
  37   19   22 1
  38   20   21 ar
  39   20   38 1
  40   21   39 1

#	End of record

