#	Name: ASD08150781
#	Creating user name:	WinNT
#	Creation time:	15. 06. 2019 21:16

#	Modifying user name:	WinNT
#	Modification time:	15. 06. 2019 21:16

#	Program:	/corina/corina34_cracker 3.40 0067  02.08.2006

@<TRIPOS>MOLECULE
ASD08150781
  60   63    0    0    0
SMALL
NO_CHARGES


@<TRIPOS>ATOM
   1 C1            -0.0172     1.3318     0.1110 C.2     
   2 N2            -0.0003     0.0021     0.2008 N.2     
   3 C3             1.1330    -0.6713     0.2849 C.2     
   4 C4             2.3485     0.0109     0.2809 C.2     
   5 C5             2.3336     1.4185     0.1859 C.2     
   6 N6             1.1444     2.0530     0.1020 N.am    
   7 C7            -1.2508     2.0011     0.0181 C.2     
   8 C8            -1.2712     3.3610    -0.0739 C.2     
   9 C9            -0.0633     4.0724    -0.0747 C.2     
  10 C10            1.1134     3.4117     0.0084 C.2     
  11 O11            3.3766     2.0514     0.1801 O.2     
  12 C12            1.1117    -2.1748     0.3856 C.3     
  13 C13            0.4507    -2.5885     1.7020 C.3     
  14 N14            0.3516    -2.7287    -0.7377 N.pl3   
  15 N15           -1.1018    -4.1160    -3.0644 N.2     
  16 C16           -1.4191    -5.0482    -3.9152 C.2     
  17 N17           -0.6575    -6.1575    -3.6964 N.pl3   
  18 C18            0.1777    -5.8817    -2.6434 C.ar    
  19 N19            1.1203    -6.5549    -1.9920 N.ar    
  20 C20            1.7691    -6.0009    -0.9894 C.ar    
  21 N21            1.5247    -4.7691    -0.5813 N.ar    
  22 C22            0.6001    -4.0189    -1.1720 C.ar    
  23 C23           -0.1192    -4.5664    -2.2477 C.ar    
  24 C24            2.4054     4.1875    -0.0001 C.3     
  25 C25            2.1018     5.6827    -0.1138 C.3     
  26 C26            3.6294    -0.7267     0.3749 C.ar    
  27 C27            4.5275    -0.7079    -0.6919 C.ar    
  28 C28            5.7215    -1.3979    -0.5993 C.ar    
  29 C29            6.0266    -2.1078     0.5506 C.ar    
  30 C30            5.1378    -2.1296     1.6130 C.ar    
  31 C31            3.9440    -1.4378     1.5327 C.ar    
  32 F32            5.4411    -2.8237     2.7317 F       
  33 F33            6.5923    -1.3805    -1.6320 F       
  34 H34           -2.1748     1.4420     0.0194 H       
  35 H35           -2.2117     3.8869    -0.1461 H       
  36 H36           -0.0725     5.1499    -0.1474 H       
  37 H37            2.1326    -2.5553     0.3563 H       
  38 H38           -0.5702    -2.2079     1.7313 H       
  39 H39            0.4353    -3.6759     1.7748 H       
  40 H40            1.0162    -2.1763     2.5377 H       
  41 H41           -0.3258    -2.1911    -1.1770 H       
  42 H42           -2.1748    -4.9568    -4.6813 H       
  43 H43           -0.6988    -6.9893    -4.1936 H       
  44 H44            2.5293    -6.5756    -0.4813 H       
  45 H45            2.9500     3.9966     0.9246 H       
  46 H46            3.0117     3.8742    -0.8501 H       
  47 H47            1.4955     5.9960     0.7361 H       
  48 H48            3.0363     6.2438    -0.1200 H       
  49 H49            1.5572     5.8736    -1.0386 H       
  50 H50            4.2902    -0.1554    -1.5890 H       
  51 H51            6.9603    -2.6463     0.6188 H       
  52 H52            3.2537    -1.4517     2.3632 H       
  53 C53           13.1317    13.2320     8.8785 C.2     
  54 C54           13.1521    11.7252     8.8702 C.3     
  55 O55           14.1697    13.8503     8.8719 O.2     
  56 O56           11.9603    13.8873     8.8876 O.3     
  57 F57           14.4773    11.2769     8.8552 F       
  58 F58           12.5100    11.2438    10.0161 F       
  59 F59           12.4882    11.2561     7.7317 F       
  60 H60           11.9978    14.8536     8.8927 H       
@<TRIPOS>BOND
   1    1    2 2
   2    1    6 1
   3    1    7 1
   4    2    3 1
   5    3    4 2
   6    3   12 1
   7    4    5 1
   8    4   26 1
   9    5    6 am
  10    5   11 2
  11    6   10 1
  12    7    8 2
  13    7   34 1
  14    8    9 1
  15    8   35 1
  16    9   10 2
  17    9   36 1
  18   10   24 1
  19   12   13 1
  20   12   14 1
  21   12   37 1
  22   13   38 1
  23   13   39 1
  24   13   40 1
  25   14   22 1
  26   14   41 1
  27   15   16 2
  28   15   23 1
  29   16   17 1
  30   16   42 1
  31   17   18 1
  32   17   43 1
  33   18   19 ar
  34   18   23 ar
  35   19   20 ar
  36   20   21 ar
  37   20   44 1
  38   21   22 ar
  39   22   23 ar
  40   24   25 1
  41   24   45 1
  42   24   46 1
  43   25   47 1
  44   25   48 1
  45   25   49 1
  46   26   27 ar
  47   26   31 ar
  48   27   28 ar
  49   27   50 1
  50   28   29 ar
  51   28   33 1
  52   29   30 ar
  53   29   51 1
  54   30   31 ar
  55   30   32 1
  56   31   52 1
  57   53   54 1
  58   53   55 2
  59   53   56 1
  60   54   57 1
  61   54   58 1
  62   54   59 1
  63   56   60 1

#	End of record

