#	Name: ASD00071110
#	Creating user name:	WinNT
#	Creation time:	15. 06. 2019 18:30

#	Modifying user name:	WinNT
#	Modification time:	15. 06. 2019 18:30

#	Program:	/corina/corina34_cracker 3.40 0067  02.08.2006

@<TRIPOS>MOLECULE
ASD00071110
  41   43    0    0    0
SMALL
NO_CHARGES


@<TRIPOS>ATOM
   1 N1             2.2066     0.6728    -1.5653 N.2     
   2 C2             2.2965    -0.1327    -0.5354 C.2     
   3 N3             1.1632    -0.6863     0.0138 N.pl3   
   4 C4            -0.0905     0.0815    -0.0323 C.3     
   5 C5            -0.1819     0.7427    -1.3866 C.ar    
   6 C6            -1.4062     1.0742    -1.9230 C.ar    
   7 C7            -1.4746     1.6914    -3.1614 C.ar    
   8 C8            -0.3151     1.9774    -3.8624 C.ar    
   9 C9             0.9159     1.6453    -3.3359 C.ar    
  10 C10            0.9919     1.0180    -2.0909 C.ar    
  11 N11            3.5269    -0.4256    -0.0027 N.pl3   
  12 C12            1.2041    -2.0139     0.6319 C.3     
  13 C13            0.7655    -3.0489    -0.3718 C.ar    
  14 C14            1.6812    -3.5795    -1.2674 C.ar    
  15 C15            1.2748    -4.5325    -2.1907 C.ar    
  16 C16           -0.0412    -4.9526    -2.2179 C.ar    
  17 C17           -0.9558    -4.4253    -1.3263 C.ar    
  18 C18           -0.5531    -3.4763    -0.3974 C.ar    
  19 O19           -1.4518    -2.9622     0.4829 O.3     
  20 C20           -2.7929    -3.4485     0.3993 C.3     
  21 O21            2.9756    -3.1663    -1.2414 O.3     
  22 C22            3.8639    -3.7556    -2.1930 C.3     
  23 Cl23          -3.0188     2.1070    -3.8368 Cl      
  24 H24           -0.9385    -0.5887     0.1085 H       
  25 H25           -0.0865     0.8412     0.7493 H       
  26 H26           -2.3125     0.8530    -1.3787 H       
  27 H27           -0.3749     2.4623    -4.8256 H       
  28 H28            1.8182     1.8692    -3.8855 H       
  29 H29            4.3326    -0.1077    -0.4393 H       
  30 H30            3.5908    -0.9505     0.8105 H       
  31 H31            2.2212    -2.2318     0.9577 H       
  32 H32            0.5347    -2.0351     1.4918 H       
  33 H33            1.9877    -4.9458    -2.8888 H       
  34 H34           -0.3556    -5.6941    -2.9374 H       
  35 H35           -1.9839    -4.7553    -1.3496 H       
  36 H36           -2.8001    -4.5253     0.5687 H       
  37 H37           -3.4052    -2.9576     1.1558 H       
  38 H38           -3.1963    -3.2336    -0.5902 H       
  39 H39            3.8976    -4.8342    -2.0393 H       
  40 H40            3.5089    -3.5433    -3.2015 H       
  41 H41            4.8628    -3.3389    -2.0642 H       
@<TRIPOS>BOND
   1    1    2 2
   2    1   10 1
   3    2    3 1
   4    2   11 1
   5    3    4 1
   6    3   12 1
   7    4    5 1
   8    4   24 1
   9    4   25 1
  10    5    6 ar
  11    5   10 ar
  12    6    7 ar
  13    6   26 1
  14    7    8 ar
  15    7   23 1
  16    8    9 ar
  17    8   27 1
  18    9   10 ar
  19    9   28 1
  20   11   29 1
  21   11   30 1
  22   12   13 1
  23   12   31 1
  24   12   32 1
  25   13   14 ar
  26   13   18 ar
  27   14   15 ar
  28   14   21 1
  29   15   16 ar
  30   15   33 1
  31   16   17 ar
  32   16   34 1
  33   17   18 ar
  34   17   35 1
  35   18   19 1
  36   19   20 1
  37   20   36 1
  38   20   37 1
  39   20   38 1
  40   21   22 1
  41   22   39 1
  42   22   40 1
  43   22   41 1

#	End of record

