#	Name: ASD01881393
#	Creating user name:	WinNT
#	Creation time:	15. 06. 2019 19:42

#	Modifying user name:	WinNT
#	Modification time:	15. 06. 2019 19:42

#	Program:	/corina/corina34_cracker 3.40 0067  02.08.2006

@<TRIPOS>MOLECULE
ASD01881393
  56   59    0    0    0
SMALL
NO_CHARGES


@<TRIPOS>ATOM
   1 C1             2.1915     1.3311    -1.3886 C.3     
   2 C2             1.6451     2.0352    -0.1450 C.3     
   3 C3             2.3851     1.5284     1.0945 C.3     
   4 C4             2.1775     0.0187     1.2307 C.3     
   5 C5             2.7238    -0.6855    -0.0129 C.3     
   6 C6             1.9838    -0.1787    -1.2525 C.3     
   7 O7             1.5003     1.8044    -2.5463 O.3     
   8 O8             4.4476     0.2039     4.6930 O.3     
   9 C9             4.9920    -0.6045     3.6446 C.3     
  10 C10            4.3241    -0.1815     2.3296 C.3     
  11 N11            2.8879    -0.4680     2.4208 N.3     
  12 C12            2.3222     0.0450     3.5837 C.ar    
  13 C13            3.0958     0.3694     4.6968 C.ar    
  14 C14            0.9406     0.2340     3.6232 C.ar    
  15 C15            0.3382     0.7348     4.7539 C.ar    
  16 C16            1.1099     1.0570     5.8712 C.ar    
  17 C17            2.4929     0.8714     5.8351 C.ar    
  18 O18           -0.9714     1.8799     7.3746 O.3     
  19 B19            0.4250     1.6268     7.1640 Du      
  20 O20            1.0584     2.0079     8.3936 O.3     
  21 C21            0.1590     1.5496     9.4250 C.3     
  22 C22           -1.2172     1.4629     8.7342 C.3     
  23 C23           -2.2133     2.4075     9.4097 C.3     
  24 C24           -1.7393     0.0251     8.7646 C.3     
  25 C25            0.5882     0.1718     9.9331 C.3     
  26 C26            0.1142     2.5542    10.5782 C.3     
  27 H27            3.2558     1.5439    -1.4885 H       
  28 H28            1.7931     3.1108    -0.2420 H       
  29 H29            0.5808     1.8224    -0.0451 H       
  30 H30            3.4495     1.7412     0.9946 H       
  31 H31            1.9959     2.0301     1.9805 H       
  32 H32            1.1131    -0.1941     1.3306 H       
  33 H33            3.7881    -0.4727    -0.1128 H       
  34 H34            2.5758    -1.7610     0.0841 H       
  35 H35            0.9195    -0.3915    -1.1525 H       
  36 H36            2.3730    -0.6803    -2.1384 H       
  37 H37            1.7957     1.4000    -3.3735 H       
  38 H38            6.0686    -0.4473     3.5788 H       
  39 H39            4.7834    -1.6557     3.8431 H       
  40 H40            4.4750     0.8860     2.1694 H       
  41 H41            4.7573    -0.7432     1.5020 H       
  42 H42            0.3402    -0.0141     2.7604 H       
  43 H43           -0.7319     0.8789     4.7770 H       
  44 H44            3.0928     1.1199     6.6981 H       
  45 H45           -3.1625     2.3776     8.8747 H       
  46 H46           -2.3682     2.0943    10.4422 H       
  47 H47           -1.8189     3.4235     9.3935 H       
  48 H48           -1.0113    -0.6359     8.2944 H       
  49 H49           -1.8952    -0.2830     9.7985 H       
  50 H50           -2.6835    -0.0302     8.2227 H       
  51 H51            1.5862     0.2389    10.3663 H       
  52 H52           -0.1150    -0.1708    10.6922 H       
  53 H53            0.5992    -0.5344     9.1029 H       
  54 H54           -0.2084     3.5250    10.2020 H       
  55 H55           -0.5880     2.2065    11.3359 H       
  56 H56            1.1071     2.6468    11.0182 H       
@<TRIPOS>BOND
   1    1    2 1
   2    1    6 1
   3    1    7 1
   4    1   27 1
   5    2    3 1
   6    2   28 1
   7    2   29 1
   8    3    4 1
   9    3   30 1
  10    3   31 1
  11    4    5 1
  12    4   11 1
  13    4   32 1
  14    5    6 1
  15    5   33 1
  16    5   34 1
  17    6   35 1
  18    6   36 1
  19    7   37 1
  20    8    9 1
  21    8   13 1
  22    9   10 1
  23    9   38 1
  24    9   39 1
  25   10   11 1
  26   10   40 1
  27   10   41 1
  28   11   12 1
  29   12   13 ar
  30   12   14 ar
  31   13   17 ar
  32   14   15 ar
  33   14   42 1
  34   15   16 ar
  35   15   43 1
  36   16   17 ar
  37   16   19 1
  38   17   44 1
  39   18   19 1
  40   18   22 1
  41   19   20 1
  42   20   21 1
  43   21   22 1
  44   21   25 1
  45   21   26 1
  46   22   23 1
  47   22   24 1
  48   23   45 1
  49   23   46 1
  50   23   47 1
  51   24   48 1
  52   24   49 1
  53   24   50 1
  54   25   51 1
  55   25   52 1
  56   25   53 1
  57   26   54 1
  58   26   55 1
  59   26   56 1

#	End of record

