#	Name: ASD01380006
#	Creating user name:	WinNT
#	Creation time:	15. 06. 2019 19:16

#	Modifying user name:	WinNT
#	Modification time:	15. 06. 2019 19:16

#	Program:	/corina/corina34_cracker 3.40 0067  02.08.2006

@<TRIPOS>MOLECULE
ASD01380006
  65   68    0    0    0
SMALL
NO_CHARGES


@<TRIPOS>ATOM
   1 C1             0.0123     1.4573    -0.0126 C.3     
   2 N2             0.0407    -0.0073    -0.0228 N.pl3   
   3 C3             0.6419    -0.6973     1.0213 C.ar    
   4 C4             1.3338    -0.0064     2.0081 C.ar    
   5 C5             1.9306    -0.6944     3.0448 C.ar    
   6 C6             1.8460    -2.0761     3.1109 C.ar    
   7 C7             1.1646    -2.7792     2.1417 C.ar    
   8 C8             0.5489    -2.0970     1.0887 C.ar    
   9 C9            -0.1812    -2.8423     0.0490 C.2     
  10 O10           -0.8075    -2.2422    -0.8021 O.2     
  11 O11           -0.1546    -4.1896     0.0416 O.3     
  12 C12           -0.8968    -4.8578    -1.0125 C.3     
  13 C13           -0.2334    -6.2017    -1.3707 C.3     
  14 C14            1.0451    -6.3857    -0.5508 C.3     
  15 O15            1.7139    -7.5763    -0.9720 O.3     
  16 P16            3.0977    -8.0813    -0.3222 P.3     
  17 O17            2.9375    -8.2067     1.1438 O.2     
  18 O18            3.4911    -9.5135    -0.9435 O.3     
  19 P19            4.4608   -10.7090    -0.4717 P.3     
  20 O20            4.2460   -10.9797     0.9674 O.2     
  21 O21            4.1305   -12.0354    -1.3224 O.3     
  22 P22            4.4089   -13.6054    -1.0994 P.3     
  23 O23            4.0772   -13.9719     0.2956 O.2     
  24 O24            3.4949   -14.4616    -2.1111 O.3     
  25 O25            5.9623   -13.9204    -1.3821 O.3     
  26 O26            5.9945   -10.2837    -0.7147 O.3     
  27 O27            4.2622    -7.0177    -0.6458 O.3     
  28 O28           -1.1733    -7.2411    -1.0504 O.3     
  29 C29           -2.4917    -6.6591    -1.1389 C.3     
  30 C30           -2.3086    -5.2523    -0.5146 C.3     
  31 O31           -2.3460    -5.3189     0.9123 O.3     
  32 N32           -3.4557    -7.4454    -0.3652 N.pl3   
  33 C33           -3.1679    -8.2710     0.6828 C.2     
  34 N34           -4.2630    -8.8094     1.1337 N.2     
  35 C35           -5.3152    -8.3635     0.4051 C.2     
  36 C36           -4.8102    -7.4818    -0.5574 C.2     
  37 N37           -5.6464    -6.8913    -1.4191 N.2     
  38 C38           -6.9393    -7.1243    -1.3792 C.2     
  39 N39           -7.7578    -6.4960    -2.2838 N.pl3   
  40 N40           -7.4905    -7.9724    -0.4655 N.am    
  41 C41           -6.7091    -8.6018     0.4399 C.2     
  42 O42           -7.1927    -9.3622     1.2612 O.2     
  43 H43            1.0326     1.8404     0.0032 H       
  44 H44           -0.4971     1.8171    -0.9066 H       
  45 H45           -0.5198     1.8043     0.8732 H       
  46 H46           -0.3605    -0.4951    -0.7590 H       
  47 H47            1.4051     1.0704     1.9636 H       
  48 H48            2.4673    -0.1526     3.8094 H       
  49 H49            2.3171    -2.6045     3.9265 H       
  50 H50            1.1023    -3.8559     2.1982 H       
  51 H51           -0.9653    -4.2193    -1.8933 H       
  52 H52            0.0020    -6.2269    -2.4347 H       
  53 H53            1.7004    -5.5279    -0.7022 H       
  54 H54            0.7906    -6.4664     0.5060 H       
  55 H55            3.6110   -15.4183    -2.0322 H       
  56 H56            6.2505   -13.7042    -2.2794 H       
  57 H57            6.2076   -10.0909    -1.6380 H       
  58 H58            4.4222    -6.8848    -1.5902 H       
  59 H59           -2.8069    -6.5793    -2.1793 H       
  60 H60           -3.0613    -4.5591    -0.8902 H       
  61 H61           -3.1824    -5.6481     1.2689 H       
  62 H62           -2.1791    -8.4507     1.0782 H       
  63 H63           -7.3802    -5.8899    -2.9402 H       
  64 H64           -8.7141    -6.6579    -2.2667 H       
  65 H65           -8.4489    -8.1222    -0.4628 H       
@<TRIPOS>BOND
   1    1    2 1
   2    1   43 1
   3    1   44 1
   4    1   45 1
   5    2    3 1
   6    2   46 1
   7    3    4 ar
   8    3    8 ar
   9    4    5 ar
  10    4   47 1
  11    5    6 ar
  12    5   48 1
  13    6    7 ar
  14    6   49 1
  15    7    8 ar
  16    7   50 1
  17    8    9 1
  18    9   10 2
  19    9   11 1
  20   11   12 1
  21   12   13 1
  22   12   30 1
  23   12   51 1
  24   13   14 1
  25   13   28 1
  26   13   52 1
  27   14   15 1
  28   14   53 1
  29   14   54 1
  30   15   16 1
  31   16   17 2
  32   16   18 1
  33   16   27 1
  34   18   19 1
  35   19   20 2
  36   19   21 1
  37   19   26 1
  38   21   22 1
  39   22   23 2
  40   22   24 1
  41   22   25 1
  42   24   55 1
  43   25   56 1
  44   26   57 1
  45   27   58 1
  46   28   29 1
  47   29   30 1
  48   29   32 1
  49   29   59 1
  50   30   31 1
  51   30   60 1
  52   31   61 1
  53   32   33 1
  54   32   36 1
  55   33   34 2
  56   33   62 1
  57   34   35 1
  58   35   36 2
  59   35   41 1
  60   36   37 1
  61   37   38 2
  62   38   39 1
  63   38   40 1
  64   39   63 1
  65   39   64 1
  66   40   41 am
  67   40   65 1
  68   41   42 2

#	End of record

