#	Name: ASD01901027
#	Creating user name:	WinNT
#	Creation time:	15. 06. 2019 19:53

#	Modifying user name:	WinNT
#	Modification time:	15. 06. 2019 19:53

#	Program:	/corina/corina34_cracker 3.40 0067  02.08.2006

@<TRIPOS>MOLECULE
ASD01901027
  26   27    0    0    0
SMALL
NO_CHARGES


@<TRIPOS>ATOM
   1 C1            -0.0159     1.3190     0.0093 C.ar    
   2 N2             0.0021    -0.0041     0.0020 N.ar    
   3 C3             1.1602    -0.6667    -0.0126 C.ar    
   4 C4             2.3578     0.0620    -0.0201 C.ar    
   5 C5             2.2878     1.4420    -0.0120 C.ar    
   6 N6             1.1017     2.0314     0.0024 N.ar    
   7 N7            -1.2340     1.9764     0.0186 N.pl3   
   8 C8             1.1799    -2.1386    -0.0202 C.2     
   9 C9             0.0253    -2.8261    -0.0124 C.2     
  10 C10            0.0451    -4.2991    -0.0200 C.ar    
  11 C11           -1.1543    -5.0171    -0.0120 C.ar    
  12 C12           -1.1291    -6.3953    -0.0197 C.ar    
  13 C13            0.0822    -7.0693    -0.0353 C.ar    
  14 C14            1.2751    -6.3629    -0.0434 C.ar    
  15 C15            1.2632    -4.9845    -0.0412 C.ar    
  16 F16            0.1004    -8.4202    -0.0423 F       
  17 H17            3.3123    -0.4431    -0.0315 H       
  18 H18            3.1911     2.0341    -0.0171 H       
  19 H19           -2.0597     1.4674     0.0197 H       
  20 H20           -1.2618     2.9460     0.0240 H       
  21 H21            2.1224    -2.6660    -0.0320 H       
  22 H22           -0.9171    -2.2988    -0.0006 H       
  23 H23           -2.0986    -4.4931     0.0005 H       
  24 H24           -2.0551    -6.9512    -0.0131 H       
  25 H25            2.2156    -6.8937    -0.0552 H       
  26 H26            2.1930    -4.4353    -0.0516 H       
@<TRIPOS>BOND
   1    1    2 ar
   2    1    6 ar
   3    1    7 1
   4    2    3 ar
   5    3    4 ar
   6    3    8 1
   7    4    5 ar
   8    4   17 1
   9    5    6 ar
  10    5   18 1
  11    7   19 1
  12    7   20 1
  13    8    9 2
  14    8   21 1
  15    9   10 1
  16    9   22 1
  17   10   11 ar
  18   10   15 ar
  19   11   12 ar
  20   11   23 1
  21   12   13 ar
  22   12   24 1
  23   13   14 ar
  24   13   16 1
  25   14   15 ar
  26   14   25 1
  27   15   26 1

#	End of record

