#	Name: ASD05420030
#	Creating user name:	WinNT
#	Creation time:	15. 06. 2019 20:59

#	Modifying user name:	WinNT
#	Modification time:	15. 06. 2019 20:59

#	Program:	/corina/corina34_cracker 3.40 0067  02.08.2006

@<TRIPOS>MOLECULE
ASD05420030
  40   41    0    0    0
SMALL
NO_CHARGES


@<TRIPOS>ATOM
   1 C1            -0.0653     1.5169     0.0465 C.ar    
   2 C2            -0.0603     0.1324     0.0665 C.ar    
   3 C3             1.1419    -0.5544     0.0702 C.ar    
   4 C4             2.3353     0.1423     0.0540 C.ar    
   5 C5             2.3290     1.5246     0.0340 C.ar    
   6 C6             1.1293     2.2115     0.0302 C.ar    
   7 F7            -1.2275    -0.5477     0.0828 F       
   8 C8             3.6310     2.2833     0.0168 C.3     
   9 N9             4.0463     2.5091    -1.3699 N.pl3   
  10 C10            5.2334     3.1978    -1.6412 C.ar    
  11 C11            5.6264     3.4116    -2.9552 C.ar    
  12 C12            6.8032     4.0943    -3.2228 C.ar    
  13 C13            7.5884     4.5642    -2.1707 C.ar    
  14 C14            7.1911     4.3480    -0.8603 C.ar    
  15 C15            6.0150     3.6722    -0.5956 C.ar    
  16 N16            7.2023     4.3109    -4.5461 N.pl3   
  17 N17            8.7811     5.2558    -2.4384 N.am    
  18 C18            9.7746     5.2634    -1.5276 C.2     
  19 O19            9.6113     4.7342    -0.4459 O.2     
  20 O20           10.9482     5.8573    -1.8164 O.3     
  21 C21           13.2251     6.5458    -1.2946 C.3     
  22 C22           11.9729     5.8271    -0.7881 C.3     
  23 H23           -1.0025     2.0536     0.0390 H       
  24 H24            1.1471    -1.6343     0.0862 H       
  25 H25            3.2731    -0.3932     0.0572 H       
  26 H26            1.1256     3.2914     0.0146 H       
  27 H27            3.4993     3.2425     0.5174 H       
  28 H28            4.3955     1.7048     0.5354 H       
  29 H29            3.4982     2.1811    -2.0999 H       
  30 H30            5.0166     3.0462    -3.7682 H       
  31 H31            7.7992     4.7120    -0.0453 H       
  32 H32            5.7076     3.5050     0.4261 H       
  33 H33            6.6556     3.9834    -5.2774 H       
  34 H34            8.0257     4.7887    -4.7323 H       
  35 H35            8.8899     5.7279    -3.2787 H       
  36 H36           12.9789     7.5808    -1.5319 H       
  37 H37           13.9943     6.5231    -0.5227 H       
  38 H38           13.5940     6.0456    -2.1900 H       
  39 H39           11.6040     6.3273     0.1073 H       
  40 H40           12.2191     4.7921    -0.5508 H       
@<TRIPOS>BOND
   1    1    2 ar
   2    1    6 ar
   3    1   23 1
   4    2    3 ar
   5    2    7 1
   6    3    4 ar
   7    3   24 1
   8    4    5 ar
   9    4   25 1
  10    5    6 ar
  11    5    8 1
  12    6   26 1
  13    8    9 1
  14    8   27 1
  15    8   28 1
  16    9   10 1
  17    9   29 1
  18   10   11 ar
  19   10   15 ar
  20   11   12 ar
  21   11   30 1
  22   12   13 ar
  23   12   16 1
  24   13   14 ar
  25   13   17 1
  26   14   15 ar
  27   14   31 1
  28   15   32 1
  29   16   33 1
  30   16   34 1
  31   17   18 am
  32   17   35 1
  33   18   19 2
  34   18   20 1
  35   20   22 1
  36   21   22 1
  37   21   36 1
  38   21   37 1
  39   21   38 1
  40   22   39 1
  41   22   40 1

#	End of record

