#	Name: ASD05313113
#	Creating user name:	WinNT
#	Creation time:	15. 06. 2019 20:58

#	Modifying user name:	WinNT
#	Modification time:	15. 06. 2019 20:58

#	Program:	/corina/corina34_cracker 3.40 0067  02.08.2006

@<TRIPOS>MOLECULE
ASD05313113
  40   43    0    0    0
SMALL
NO_CHARGES


@<TRIPOS>ATOM
   1 C1            -0.0461     0.8387     0.9956 C.2     
   2 C2             0.1268    -0.6030     0.5809 C.3     
   3 N3             0.9656     1.7418     1.0182 N.pl3   
   4 N4             1.4712    -0.7213    -0.0145 N.am    
   5 C5             2.5899    -0.0455     0.6602 C.3     
   6 C6             2.3510     1.4690     0.6398 C.3     
   7 N7            -0.8619     2.6759     1.6610 N.2     
   8 N8            -1.1265     1.4442     1.3889 N.2     
   9 C9             0.4175     2.9109     1.4507 C.2     
  10 C10            1.1228     4.1957     1.6494 C.ar    
  11 C11            0.4232     5.3168     2.1009 C.ar    
  12 N12            2.4274     4.2863     1.4038 N.ar    
  13 N13            1.0578     6.4602     2.2767 N.ar    
  14 C14            2.3535     6.5450     2.0261 C.ar    
  15 C15            3.0523     5.4350     1.5831 C.ar    
  16 C16            1.6690    -1.4289    -1.1444 C.2     
  17 O17            2.7632    -1.4351    -1.6742 O.2     
  18 C18            0.5561    -2.1971    -1.7392 C.ar    
  19 C19            0.3197    -2.1376    -3.1145 C.ar    
  20 C20           -0.7199    -2.8562    -3.6641 C.ar    
  21 C21           -1.5306    -3.6373    -2.8543 C.ar    
  22 C22           -1.3007    -3.6996    -1.4886 C.ar    
  23 C23           -0.2597    -2.9897    -0.9293 C.ar    
  24 C24            1.1995    -1.2888    -3.9956 C.3     
  25 F25           -2.5484    -4.3398    -3.3982 F       
  26 H26            0.0475    -1.2528     1.4525 H       
  27 H27           -0.6310    -0.8719    -0.1550 H       
  28 H28            2.6542    -0.3900     1.6923 H       
  29 H29            3.5203    -0.2744     0.1406 H       
  30 H30            2.5371     1.8534    -0.3630 H       
  31 H31            3.0240     1.9535     1.3472 H       
  32 H32           -0.6351     5.2482     2.3054 H       
  33 H33            2.8692     7.4829     2.1710 H       
  34 H34            4.1113     5.5091     1.3843 H       
  35 H35           -0.9038    -2.8106    -4.7274 H       
  36 H36           -1.9354    -4.3089    -0.8624 H       
  37 H37           -0.0784    -3.0427     0.1341 H       
  38 H38            2.0897    -1.8537    -4.2724 H       
  39 H39            0.6516    -1.0101    -4.8957 H       
  40 H40            1.4937    -0.3885    -3.4561 H       
@<TRIPOS>BOND
   1    1    2 1
   2    1    3 1
   3    1    8 2
   4    2    4 1
   5    2   26 1
   6    2   27 1
   7    3    6 1
   8    3    9 1
   9    4    5 1
  10    4   16 am
  11    5    6 1
  12    5   28 1
  13    5   29 1
  14    6   30 1
  15    6   31 1
  16    7    8 1
  17    7    9 2
  18    9   10 1
  19   10   11 ar
  20   10   12 ar
  21   11   13 ar
  22   11   32 1
  23   12   15 ar
  24   13   14 ar
  25   14   15 ar
  26   14   33 1
  27   15   34 1
  28   16   17 2
  29   16   18 1
  30   18   19 ar
  31   18   23 ar
  32   19   20 ar
  33   19   24 1
  34   20   21 ar
  35   20   35 1
  36   21   22 ar
  37   21   25 1
  38   22   23 ar
  39   22   36 1
  40   23   37 1
  41   24   38 1
  42   24   39 1
  43   24   40 1

#	End of record

