#	Name: ASD01917585
#	Creating user name:	WinNT
#	Creation time:	15. 06. 2019 20:09

#	Modifying user name:	WinNT
#	Modification time:	15. 06. 2019 20:09

#	Program:	/corina/corina34_cracker 3.40 0067  02.08.2006

@<TRIPOS>MOLECULE
ASD01917585
  16   17    0    0    0
SMALL
NO_CHARGES


@<TRIPOS>ATOM
   1 C1            -0.0170     1.4036     0.0098 C.2     
   2 C2             0.0021    -0.0041     0.0020 C.2     
   3 C3             1.1968    -0.6539    -0.0129 C.2     
   4 C4             2.3924     0.0900    -0.0203 C.2     
   5 C5             2.3552     1.4431    -0.0127 C.2     
   6 N6             1.1597     2.1060     0.0023 N.pl3   
   7 N7             0.8359     3.4685     0.0123 N.2     
   8 C8            -0.4733     3.5956     0.0252 C.2     
   9 C9            -1.0485     2.3359     0.0190 C.2     
  10 O10            3.5903    -0.5543    -0.0348 O.3     
  11 H11           -0.9225    -0.5622     0.0082 H       
  12 H12            1.2283    -1.7334    -0.0186 H       
  13 H13            3.2782     2.0039    -0.0182 H       
  14 H14           -1.0125     4.5313     0.0355 H       
  15 H15           -2.1061     2.1174     0.0224 H       
  16 H16            3.5183    -1.5186    -0.0390 H       
@<TRIPOS>BOND
   1    1    2 1
   2    1    6 1
   3    1    9 2
   4    2    3 2
   5    2   11 1
   6    3    4 1
   7    3   12 1
   8    4    5 2
   9    4   10 1
  10    5    6 1
  11    5   13 1
  12    6    7 1
  13    7    8 2
  14    8    9 1
  15    8   14 1
  16    9   15 1
  17   10   16 1

#	End of record

