#	Name: ASD08070651
#	Creating user name:	WinNT
#	Creation time:	15. 06. 2019 21:15

#	Modifying user name:	WinNT
#	Modification time:	15. 06. 2019 21:15

#	Program:	/corina/corina34_cracker 3.40 0067  02.08.2006

@<TRIPOS>MOLECULE
ASD08070651
  36   37    0    0    0
SMALL
NO_CHARGES


@<TRIPOS>ATOM
   1 C1            -0.0179     1.4718     0.0101 C.2     
   2 C2             0.0021    -0.0041     0.0020 C.ar    
   3 C3             1.2207    -0.6881    -0.0133 C.ar    
   4 C4             1.2349    -2.0658    -0.0209 C.ar    
   5 C5             0.0383    -2.7752    -0.0133 C.ar    
   6 C6            -1.1747    -2.0980     0.0019 C.ar    
   7 C7            -1.1970    -0.7207     0.0154 C.ar    
   8 O8             1.0266     2.0940     0.0035 O.2     
   9 N9            -1.1942     2.1298     0.0193 N.am    
  10 C10           -1.2140     3.5946     0.0273 C.3     
  11 C11           -1.0884     4.0984     1.4665 C.3     
  12 C12           -2.5113     4.0826    -0.5643 C.ar    
  13 C13           -2.5184     5.1823    -1.4020 C.ar    
  14 C14           -3.7084     5.6300    -1.9447 C.ar    
  15 C15           -4.8911     4.9778    -1.6501 C.ar    
  16 C16           -4.8837     3.8776    -0.8132 C.ar    
  17 C17           -3.6932     3.4273    -0.2739 C.ar    
  18 O18            0.0558    -4.1324    -0.0213 O.3     
  19 C19           -1.2089    -4.7976    -0.0128 C.3     
  20 Cl20           2.7476    -2.9173    -0.0405 Cl      
  21 H21            2.1499    -0.1376    -0.0195 H       
  22 H22           -2.1016    -2.6523     0.0074 H       
  23 H23           -2.1405    -0.1955     0.0317 H       
  24 H24           -2.0275     1.6334     0.0205 H       
  25 H25           -0.3800     3.9725    -0.5640 H       
  26 H26           -0.1502     3.7454     1.8945 H       
  27 H27           -1.1032     5.1883     1.4725 H       
  28 H28           -1.9224     3.7205     2.0579 H       
  29 H29           -1.5944     5.6918    -1.6321 H       
  30 H30           -3.7141     6.4895    -2.5985 H       
  31 H31           -5.8208     5.3280    -2.0735 H       
  32 H32           -5.8078     3.3682    -0.5828 H       
  33 H33           -3.6870     2.5655     0.3770 H       
  34 H34           -1.7609    -4.5171     0.8842 H       
  35 H35           -1.7783    -4.5069    -0.8956 H       
  36 H36           -1.0521    -5.8762    -0.0205 H       
@<TRIPOS>BOND
   1    1    2 1
   2    1    8 2
   3    1    9 am
   4    2    3 ar
   5    2    7 ar
   6    3    4 ar
   7    3   21 1
   8    4    5 ar
   9    4   20 1
  10    5    6 ar
  11    5   18 1
  12    6    7 ar
  13    6   22 1
  14    7   23 1
  15    9   10 1
  16    9   24 1
  17   10   11 1
  18   10   12 1
  19   10   25 1
  20   11   26 1
  21   11   27 1
  22   11   28 1
  23   12   13 ar
  24   12   17 ar
  25   13   14 ar
  26   13   29 1
  27   14   15 ar
  28   14   30 1
  29   15   16 ar
  30   15   31 1
  31   16   17 ar
  32   16   32 1
  33   17   33 1
  34   18   19 1
  35   19   34 1
  36   19   35 1
  37   19   36 1

#	End of record

