#	Name: ASD01140151
#	Creating user name:	WinNT
#	Creation time:	15. 06. 2019 19:00

#	Modifying user name:	WinNT
#	Modification time:	15. 06. 2019 19:00

#	Program:	/corina/corina34_cracker 3.40 0067  02.08.2006

@<TRIPOS>MOLECULE
ASD01140151
  82   87    0    0    0
SMALL
NO_CHARGES


@<TRIPOS>ATOM
   1 C1            -0.4014     2.7439    -0.5285 C.3     
   2 C2            -0.8212     1.2764    -0.4425 C.3     
   3 C3            -0.3631     0.7148     0.9049 C.3     
   4 C4             1.1558     0.8148     1.0096 C.3     
   5 C5             1.6375     2.2665     0.8885 C.3     
   6 C6             1.1220     2.8489    -0.4263 C.3     
   7 C7             1.6133     0.2017     2.3326 C.3     
   8 C8             3.1411     0.2418     2.4048 C.3     
   9 C9             3.6078     1.7017     2.2879 C.3     
  10 C10            3.1747     2.2517     0.9306 C.3     
  11 C11            5.1245     1.7651     2.4338 C.3     
  12 C12            5.5522     3.2274     2.3321 C.3     
  13 C13            5.3021     3.6992     0.9117 C.3     
  14 C14            3.8206     3.5659     0.5347 C.3     
  15 C15            5.6823     1.3590     3.8025 C.3     
  16 C16            6.9325     2.2137     3.9971 C.3     
  17 C17            7.0374     3.1127     2.7545 C.3     
  18 C18            1.0716     3.0869     2.0497 C.3     
  19 C19            5.8064     0.9083     1.3611 C.3     
  20 C20            4.8271     4.1154     3.3460 C.3     
  21 C21            7.5768     4.4707     3.1329 C.2     
  22 O22            7.4213     4.8911     4.2542 O.2     
  23 C23            8.3094     5.3019     2.1114 C.3     
  24 O24            3.1085     4.6990     1.0176 O.3     
  25 C25            3.8405     3.6547    -1.0151 C.3     
  26 C26            3.4805     5.9290     0.3926 C.3     
  27 C27            2.6784     7.0576     0.9875 C.ar    
  28 C28            3.1578     7.7403     2.0897 C.ar    
  29 C29            2.4220     8.7755     2.6355 C.ar    
  30 C30            1.2069     9.1282     2.0787 C.ar    
  31 C31            0.7278     8.4461     0.9759 C.ar    
  32 C32            1.4657     7.4138     0.4276 C.ar    
  33 C33            0.4042    10.2561     2.6743 C.3     
  34 N34            1.0382    11.5692     2.8158 N.2     
  35 N35            0.2213    11.4782     1.8873 N.2     
  36 C36           -0.6844     9.8573     3.6726 C.3     
  37 F37           -0.1028     9.1853     4.7531 F       
  38 F38           -1.3372    11.0053     4.1341 F       
  39 F39           -1.6087     9.0164     3.0434 F       
  40 H40           -0.7189     3.1481    -1.4953 H       
  41 H41           -0.8800     3.3161     0.2607 H       
  42 H42           -1.9037     1.1975    -0.5246 H       
  43 H43           -0.3498     0.7154    -1.2494 H       
  44 H44           -0.8448     1.2555     1.7147 H       
  45 H45           -0.6570    -0.3387     0.9654 H       
  46 H46            1.6016     0.2388     0.1879 H       
  47 H47            1.5632     2.3111    -1.2654 H       
  48 H48            1.3757     3.9111    -0.4799 H       
  49 H49            1.1840     0.7272     3.1785 H       
  50 H50            1.2873    -0.8439     2.3693 H       
  51 H51            3.4727    -0.1656     3.3581 H       
  52 H52            3.5454    -0.3481     1.5855 H       
  53 H53            3.1462     2.2551     3.1081 H       
  54 H54            3.4750     1.5021     0.1699 H       
  55 H55            5.5711     4.7677     0.8374 H       
  56 H56            5.9182     3.1688     0.1880 H       
  57 H57            4.9527     1.5557     4.5838 H       
  58 H58            5.9480     0.3009     3.7913 H       
  59 H59            6.8448     2.8187     4.8975 H       
  60 H60            7.8143     1.5741     4.0659 H       
  61 H61            7.6450     2.6625     1.9799 H       
  62 H62            1.4167     2.6659     2.9941 H       
  63 H63            1.4125     4.1188     1.9657 H       
  64 H64           -0.0176     3.0603     2.0165 H       
  65 H65            5.5411     1.2843     0.3730 H       
  66 H66            6.8876     0.9571     1.4902 H       
  67 H67            5.4752    -0.1257     1.4573 H       
  68 H68            5.0008     3.7344     4.3524 H       
  69 H69            5.2063     5.1347     3.2729 H       
  70 H70            3.7578     4.1096     3.1349 H       
  71 H71            8.3504     4.7619     1.1654 H       
  72 H72            7.7850     6.2466     1.9681 H       
  73 H73            9.3227     5.4982     2.4619 H       
  74 H74            4.4483     2.8444    -1.4177 H       
  75 H75            2.8231     3.5700    -1.3970 H       
  76 H76            4.2641     4.6121    -1.3188 H       
  77 H77            4.5425     6.1127     0.5556 H       
  78 H78            3.2826     5.8672    -0.6775 H       
  79 H79            4.1072     7.4647     2.5247 H       
  80 H80            2.7963     9.3084     3.4971 H       
  81 H81           -0.2216     8.7215     0.5412 H       
  82 H82            1.0915     6.8808    -0.4340 H       
@<TRIPOS>BOND
   1    1    2 1
   2    1    6 1
   3    1   40 1
   4    1   41 1
   5    2    3 1
   6    2   42 1
   7    2   43 1
   8    3    4 1
   9    3   44 1
  10    3   45 1
  11    4    5 1
  12    4    7 1
  13    4   46 1
  14    5    6 1
  15    5   18 1
  16    5   10 1
  17    6   47 1
  18    6   48 1
  19    7    8 1
  20    7   49 1
  21    7   50 1
  22    8    9 1
  23    8   51 1
  24    8   52 1
  25    9   11 1
  26    9   10 1
  27    9   53 1
  28   10   14 1
  29   10   54 1
  30   11   12 1
  31   11   15 1
  32   11   19 1
  33   12   13 1
  34   12   20 1
  35   12   17 1
  36   13   14 1
  37   13   55 1
  38   13   56 1
  39   14   24 1
  40   14   25 1
  41   15   16 1
  42   15   57 1
  43   15   58 1
  44   16   17 1
  45   16   59 1
  46   16   60 1
  47   17   21 1
  48   17   61 1
  49   18   62 1
  50   18   63 1
  51   18   64 1
  52   19   65 1
  53   19   66 1
  54   19   67 1
  55   20   68 1
  56   20   69 1
  57   20   70 1
  58   21   22 2
  59   21   23 1
  60   23   71 1
  61   23   72 1
  62   23   73 1
  63   24   26 1
  64   25   74 1
  65   25   75 1
  66   25   76 1
  67   26   27 1
  68   26   77 1
  69   26   78 1
  70   27   28 ar
  71   27   32 ar
  72   28   29 ar
  73   28   79 1
  74   29   30 ar
  75   29   80 1
  76   30   31 ar
  77   30   33 1
  78   31   32 ar
  79   31   81 1
  80   32   82 1
  81   33   34 1
  82   33   35 1
  83   33   36 1
  84   34   35 2
  85   36   37 1
  86   36   38 1
  87   36   39 1

#	End of record

