#	Name: ASD08170605
#	Creating user name:	WinNT
#	Creation time:	15. 06. 2019 21:17

#	Modifying user name:	WinNT
#	Modification time:	15. 06. 2019 21:17

#	Program:	/corina/corina34_cracker 3.40 0067  02.08.2006

@<TRIPOS>MOLECULE
ASD08170605
  66   71    0    0    0
SMALL
NO_CHARGES


@<TRIPOS>ATOM
   1 C1             1.2233     1.8007    -0.2234 C.3     
   2 C2             1.0916     0.3024    -0.1292 C.2     
   3 N3             1.7676    -0.3752     0.8197 N.am    
   4 C4             1.6460    -1.7579     0.9066 C.2     
   5 S5             2.4351    -2.7597     2.0505 S.3     
   6 C6             1.6526    -4.1662     1.3287 C.2     
   7 C7             1.8124    -5.5975     1.7723 C.3     
   8 C8             2.9799    -6.2377     1.0187 C.3     
   9 C9             4.3097    -8.3310     0.7154 C.3     
  10 C10            4.4696    -9.7623     1.1590 C.2     
  11 S11            5.4728   -10.3322     2.4933 S.3     
  12 C12            4.9753   -11.9365     2.1567 C.2     
  13 N13            5.3783   -13.0726     2.8502 N.am    
  14 C14            4.9138   -14.2844     2.4865 C.2     
  15 C15            5.3505   -15.5155     3.2380 C.3     
  16 N16            0.9110    -2.5031     0.1375 N.2     
  17 N17            0.9155    -3.7477     0.3493 N.2     
  18 N18            3.8906   -10.7945     0.6326 N.2     
  19 N19            4.1585   -11.9159     1.1469 N.2     
  20 O20            4.1442   -14.3841     1.5545 O.2     
  21 O21            0.3773    -0.2937    -0.9073 O.2     
  22 C22            3.1422    -7.6909     1.4691 C.3     
  23 C23            4.3811   -16.6875     2.9622 C.3     
  24 C24            2.6889     2.1954    -0.5165 C.3     
  25 C25            6.7309   -16.0132     2.7105 C.3     
  26 C26            6.5709   -16.0358     1.1596 C.3     
  27 C27            5.6015   -17.2078     0.8838 C.3     
  28 C28            5.2669   -17.7829     2.2940 C.3     
  29 C29            2.6307     2.9376    -1.8866 C.3     
  30 C30            1.9150     4.2862    -1.5699 C.3     
  31 C31            0.4494     3.8915    -1.2767 C.3     
  32 C32            0.4177     2.3415    -1.4439 C.3     
  33 C33            1.4699     2.1521    -2.5930 C.3     
  34 C34            6.6300   -17.5455     3.0349 C.3     
  35 H35            0.8805     2.2702     0.6986 H       
  36 H36            2.3388     0.1015     1.4420 H       
  37 H37            2.0122    -5.6258     2.8435 H       
  38 H38            0.8964    -6.1485     1.5589 H       
  39 H39            2.7801    -6.2094    -0.0525 H       
  40 H40            3.8959    -5.6867     1.2321 H       
  41 H41            5.2257    -7.7800     0.9288 H       
  42 H42            4.1099    -8.3028    -0.3557 H       
  43 H43            5.9938   -12.9929     3.5957 H       
  44 H44            5.4045   -15.3081     4.3068 H       
  45 H45            3.3420    -7.7191     2.5402 H       
  46 H46            2.2262    -8.2418     1.2557 H       
  47 H47            3.9579   -17.0583     3.8957 H       
  48 H48            3.5885   -16.3732     2.2831 H       
  49 H49            3.0659     2.8607     0.2603 H       
  50 H50            3.3141     1.3058    -0.5925 H       
  51 H51            7.6051   -15.4854     3.0917 H       
  52 H52            6.1423   -15.0973     0.8081 H       
  53 H53            7.5332   -16.2179     0.6810 H       
  54 H54            4.6962   -16.8455     0.3966 H       
  55 H55            6.0871   -17.9661     0.2696 H       
  56 H56            4.8663   -18.7964     2.3124 H       
  57 H57            3.5740     3.0143    -2.4274 H       
  58 H58            2.3634     4.7583    -0.6958 H       
  59 H59            1.9639     4.9536    -2.4303 H       
  60 H60            0.1774     4.1695    -0.2585 H       
  61 H61           -0.2221     4.3648    -1.9931 H       
  62 H62           -0.5663     1.8991    -1.5992 H       
  63 H63            1.1551     2.6332    -3.5190 H       
  64 H64            1.7216     1.1029    -2.7480 H       
  65 H65            7.4444   -18.1131     2.5846 H       
  66 H66            6.5511   -17.7323     4.1059 H       
@<TRIPOS>BOND
   1    1    2 1
   2    1   24 1
   3    1   32 1
   4    1   35 1
   5    2    3 am
   6    2   21 2
   7    3    4 1
   8    3   36 1
   9    4    5 1
  10    4   16 2
  11    5    6 1
  12    6    7 1
  13    6   17 2
  14    7    8 1
  15    7   37 1
  16    7   38 1
  17    8   22 1
  18    8   39 1
  19    8   40 1
  20    9   10 1
  21    9   22 1
  22    9   41 1
  23    9   42 1
  24   10   11 1
  25   10   18 2
  26   11   12 1
  27   12   13 1
  28   12   19 2
  29   13   14 am
  30   13   43 1
  31   14   15 1
  32   14   20 2
  33   15   25 1
  34   15   23 1
  35   15   44 1
  36   16   17 1
  37   18   19 1
  38   22   45 1
  39   22   46 1
  40   23   28 1
  41   23   47 1
  42   23   48 1
  43   24   29 1
  44   24   49 1
  45   24   50 1
  46   25   26 1
  47   25   34 1
  48   25   51 1
  49   26   27 1
  50   26   52 1
  51   26   53 1
  52   27   28 1
  53   27   54 1
  54   27   55 1
  55   28   34 1
  56   28   56 1
  57   29   30 1
  58   29   33 1
  59   29   57 1
  60   30   31 1
  61   30   58 1
  62   30   59 1
  63   31   32 1
  64   31   60 1
  65   31   61 1
  66   32   33 1
  67   32   62 1
  68   33   63 1
  69   33   64 1
  70   34   65 1
  71   34   66 1

#	End of record

