#	Name: ASD03091890
#	Creating user name:	WinNT
#	Creation time:	15. 06. 2019 20:31

#	Modifying user name:	WinNT
#	Modification time:	15. 06. 2019 20:31

#	Program:	/corina/corina34_cracker 3.40 0067  02.08.2006

@<TRIPOS>MOLECULE
ASD03091890
  92   96    0    0    0
SMALL
NO_CHARGES


@<TRIPOS>ATOM
   1 O1            -0.0970    -1.3989    -0.1537 O.3     
   2 O2             2.9887    -1.5738     6.7722 O.3     
   3 O3             2.4864     2.5198    -1.6070 O.2     
   4 O4             3.7272    -2.9357     2.2728 O.2     
   5 N5             0.5453     0.7358    -2.0465 N.3     
   6 N6            -1.1332     1.7007    -4.1339 N.3     
   7 N7             3.1193    -1.9502     4.1652 N.am    
   8 N8             3.2965     2.5129    -3.6723 N.am    
   9 N9            -4.1494     0.6603    -7.1836 N.ar    
  10 C10            1.1154     1.4460    -3.1998 C.3     
  11 C11            0.0823     2.4321    -3.7500 C.3     
  12 C12           -0.6702     0.0044    -2.4303 C.3     
  13 C13            1.5344    -0.1670    -1.4427 C.3     
  14 C14           -1.7033     0.9905    -2.9805 C.3     
  15 C15            1.0657    -0.5753    -0.0446 C.3     
  16 C16            2.1786    -1.3545     0.6590 C.3     
  17 C17            1.7797    -1.6122     2.1134 C.3     
  18 C18            4.1874    -2.6196     4.9117 C.3     
  19 C19            2.3480     2.1980    -2.7681 C.2     
  20 C20            3.8444    -2.6614     6.4160 C.3     
  21 C21           -2.1223     2.6035    -4.7377 C.3     
  22 C22            5.2309    -2.5076     7.0764 C.3     
  23 C23            5.4712    -1.8230     4.8201 C.ar    
  24 C24            2.9454    -2.2140     2.8550 C.2     
  25 C25            0.5953    -2.5800     2.1536 C.3     
  26 C26            6.0711    -1.7587     6.0642 C.ar    
  27 C27            4.4947     3.2439    -3.2526 C.3     
  28 C28           -3.2420     1.7928    -5.3377 C.ar    
  29 C29            6.0670    -1.2032     3.7348 C.ar    
  30 C30            0.1628    -2.7855     3.5825 C.ar    
  31 C31            7.2657    -1.0762     6.2186 C.ar    
  32 C32            5.2458     2.4292    -2.1976 C.3     
  33 C33            5.4029     3.4720    -4.4626 C.3     
  34 C34            4.0868     4.5940    -2.6594 C.3     
  35 C35            7.2583    -0.5216     3.8912 C.ar    
  36 C36            7.8593    -0.4595     5.1343 C.ar    
  37 C37           -4.3545     1.4624    -4.5787 C.ar    
  38 C38           -3.1733     1.3697    -6.6514 C.ar    
  39 C39           -0.7712    -1.9394     4.1505 C.ar    
  40 C40            0.6959    -3.8236     4.3235 C.ar    
  41 C41           -5.3603     0.7156    -5.1725 C.ar    
  42 C42           -1.1679    -2.1278     5.4612 C.ar    
  43 C43            0.2991    -4.0121     5.6342 C.ar    
  44 C44           -0.6310    -3.1628     6.2038 C.ar    
  45 C45           -5.2217     0.3279    -6.4920 C.ar    
  46 H46            1.3806     0.7269    -3.9749 H       
  47 H47            0.4926     2.9392    -4.6233 H       
  48 H48           -0.1626     3.1675    -2.9837 H       
  49 H49           -0.4253    -0.7310    -3.1966 H       
  50 H50           -1.0805    -0.5027    -1.5571 H       
  51 H51            1.6417    -1.0561    -2.0640 H       
  52 H52            2.4949     0.3431    -1.3693 H       
  53 H53           -1.9685     1.7096    -2.2055 H       
  54 H54           -2.5948     0.4466    -3.2928 H       
  55 H55            0.8258     0.3173     0.5332 H       
  56 H56            2.3332    -2.3062     0.1506 H       
  57 H57            3.1010    -0.7744     0.6326 H       
  58 H58            1.4961    -0.6711     2.5846 H       
  59 H59            4.3391    -3.6294     4.5303 H       
  60 H60            3.3883    -3.6146     6.6831 H       
  61 H61           -2.5240     3.2668    -3.9717 H       
  62 H62           -1.6446     3.1964    -5.5176 H       
  63 H63            5.1488    -1.9328     7.9990 H       
  64 H64            5.6648    -3.4870     7.2775 H       
  65 H65           -0.2329    -2.1646     1.5795 H       
  66 H66            0.8925    -3.5361     1.7229 H       
  67 H67            2.5373    -1.3171     4.6139 H       
  68 H68            3.1858     2.2556    -4.6010 H       
  69 H69            0.0434    -2.2129    -0.6566 H       
  70 H70            5.5990    -1.2531     2.7628 H       
  71 H71            7.7349    -1.0254     7.1901 H       
  72 H72            3.4398     4.4314    -1.7974 H       
  73 H73            5.5364     1.4674    -2.6203 H       
  74 H74            6.1373     2.9731    -1.8854 H       
  75 H75            4.5988     2.2667    -1.3356 H       
  76 H76            4.8679     4.0525    -5.2142 H       
  77 H77            4.9783     5.1379    -2.3471 H       
  78 H78            3.5518     5.1744    -3.4110 H       
  79 H79            6.2944     4.0159    -4.1504 H       
  80 H80            5.6935     2.5103    -4.8853 H       
  81 H81            2.7443    -1.5557     7.7077 H       
  82 H82            7.7206    -0.0393     3.0427 H       
  83 H83            8.7912     0.0722     5.2582 H       
  84 H84           -4.4354     1.7791    -3.5493 H       
  85 H85           -2.3100     1.6225    -7.2491 H       
  86 H86           -1.1908    -1.1308     3.5703 H       
  87 H87            1.4220    -4.4876     3.8783 H       
  88 H88           -6.2409     0.4403    -4.6112 H       
  89 H89           -1.8971    -1.4663     5.9051 H       
  90 H90            0.7153    -4.8234     6.2130 H       
  91 H91           -0.9406    -3.3098     7.2280 H       
  92 H92           -6.0007    -0.2541    -6.9619 H       
@<TRIPOS>BOND
   1    1   69 1
   2    1   15 1
   3    2   81 1
   4    2   20 1
   5    3   19 2
   6    4   24 2
   7    5   10 1
   8    5   12 1
   9    5   13 1
  10    6   11 1
  11    6   14 1
  12    6   21 1
  13    7   24 am
  14    7   67 1
  15    7   18 1
  16    8   19 am
  17    8   27 1
  18    8   68 1
  19    9   38 ar
  20    9   45 ar
  21   10   11 1
  22   10   19 1
  23   10   46 1
  24   11   47 1
  25   11   48 1
  26   12   14 1
  27   12   49 1
  28   12   50 1
  29   13   15 1
  30   13   51 1
  31   13   52 1
  32   14   53 1
  33   14   54 1
  34   15   16 1
  35   15   55 1
  36   16   56 1
  37   16   57 1
  38   16   17 1
  39   17   24 1
  40   17   25 1
  41   17   58 1
  42   18   20 1
  43   18   23 1
  44   18   59 1
  45   20   22 1
  46   20   60 1
  47   21   28 1
  48   21   61 1
  49   21   62 1
  50   22   26 1
  51   22   63 1
  52   22   64 1
  53   23   26 ar
  54   23   29 ar
  55   25   30 1
  56   25   65 1
  57   25   66 1
  58   26   31 ar
  59   27   32 1
  60   27   33 1
  61   27   34 1
  62   28   37 ar
  63   28   38 ar
  64   29   35 ar
  65   29   70 1
  66   30   39 ar
  67   30   40 ar
  68   31   36 ar
  69   31   71 1
  70   32   73 1
  71   32   74 1
  72   32   75 1
  73   33   76 1
  74   33   79 1
  75   33   80 1
  76   34   72 1
  77   34   77 1
  78   34   78 1
  79   35   36 ar
  80   35   82 1
  81   36   83 1
  82   37   41 ar
  83   37   84 1
  84   38   85 1
  85   39   42 ar
  86   39   86 1
  87   40   43 ar
  88   40   87 1
  89   41   45 ar
  90   41   88 1
  91   42   44 ar
  92   42   89 1
  93   43   44 ar
  94   43   90 1
  95   44   91 1
  96   45   92 1

#	End of record

