#	Name: ASD01884215
#	Creating user name:	WinNT
#	Creation time:	15. 06. 2019 19:47

#	Modifying user name:	WinNT
#	Modification time:	15. 06. 2019 19:47

#	Program:	/corina/corina34_cracker 3.40 0067  02.08.2006

@<TRIPOS>MOLECULE
ASD01884215
  35   38    0    0    0
SMALL
NO_CHARGES


@<TRIPOS>ATOM
   1 C1            -0.0169     1.3920     0.0097 C.ar    
   2 C2             0.0021    -0.0041     0.0020 C.ar    
   3 C3            -1.1683    -0.7205     0.0098 C.ar    
   4 C4            -2.4132    -0.0698     0.0252 C.ar    
   5 C5            -2.4165     1.3273     0.0328 C.ar    
   6 C6            -1.2433     2.0548     0.0308 C.ar    
   7 C7             1.2502     2.1592     0.0017 C.ar    
   8 N8            -3.6704    -0.6444     0.0342 N.am    
   9 C9            -4.7412     0.1548     0.0487 C.2     
  10 S10           -4.1177     1.8129     0.0517 S.3     
  11 O11           -5.9092    -0.1874     0.0584 O.2     
  12 C12           -3.8257    -2.1011     0.0273 C.3     
  13 C13           -3.8658    -2.6165     1.4674 C.3     
  14 C14           -4.1414    -4.1068     1.6769 C.3     
  15 C15           -2.7376    -3.5475     1.9162 C.3     
  16 C16            2.2775     1.8593     0.9197 C.ar    
  17 C17            3.4511     2.6186     0.8637 C.ar    
  18 C18            3.5575     3.6217    -0.0781 C.ar    
  19 N19            2.5748     3.8743    -0.9219 N.ar    
  20 C20            1.4519     3.1876    -0.9171 C.ar    
  21 C21            2.1239     0.8092     1.8811 C.1     
  22 N22            2.0021    -0.0239     2.6437 N.1     
  23 H23            0.9477    -0.5256    -0.0105 H       
  24 H24           -1.1319    -1.7999     0.0037 H       
  25 H25           -1.2754     3.1343     0.0371 H       
  26 H26           -4.7542    -2.3651    -0.4790 H       
  27 H27           -2.9843    -2.5538    -0.4973 H       
  28 H28           -4.2686    -1.9217     2.2043 H       
  29 H29           -4.7252    -4.3925     2.5519 H       
  30 H30           -4.2943    -4.7201     0.7889 H       
  31 H31           -1.9668    -3.7928     1.1855 H       
  32 H32           -2.3978    -3.4651     2.9486 H       
  33 H33            4.2629     2.4227     1.5485 H       
  34 H34            4.4614     4.2110    -0.1253 H       
  35 H35            0.6748     3.4296    -1.6269 H       
@<TRIPOS>BOND
   1    1    2 ar
   2    1    7 1
   3    1    6 ar
   4    2    3 ar
   5    2   23 1
   6    3    4 ar
   7    3   24 1
   8    4    5 ar
   9    4    8 1
  10    5    6 ar
  11    5   10 1
  12    6   25 1
  13    7   16 ar
  14    7   20 ar
  15    8    9 am
  16    8   12 1
  17    9   10 1
  18    9   11 2
  19   12   13 1
  20   12   26 1
  21   12   27 1
  22   13   14 1
  23   13   15 1
  24   13   28 1
  25   14   15 1
  26   14   29 1
  27   14   30 1
  28   15   31 1
  29   15   32 1
  30   16   17 ar
  31   16   21 1
  32   17   18 ar
  33   17   33 1
  34   18   19 ar
  35   18   34 1
  36   19   20 ar
  37   20   35 1
  38   21   22 3

#	End of record

