#	Name: ASD01882733
#	Creating user name:	WinNT
#	Creation time:	15. 06. 2019 19:45

#	Modifying user name:	WinNT
#	Modification time:	15. 06. 2019 19:45

#	Program:	/corina/corina34_cracker 3.40 0067  02.08.2006

@<TRIPOS>MOLECULE
ASD01882733
  44   46    0    0    0
SMALL
NO_CHARGES


@<TRIPOS>ATOM
   1 C1            -0.0180     1.4779     0.0102 C.ar    
   2 C2             0.0021    -0.0041     0.0020 C.ar    
   3 N3             1.1659    -0.6425    -0.0071 N.ar    
   4 C4            -1.2012    -0.7073     0.0097 C.ar    
   5 C5            -1.1757    -2.0917     0.0021 C.ar    
   6 C6             1.2298    -1.9621    -0.0145 C.ar    
   7 N7             2.2906    -2.8591    -0.0249 N.am    
   8 C8             0.0581    -2.7282    -0.0131 C.ar    
   9 N9             0.4474    -4.0633    -0.0240 N.am    
  10 C10            1.7932    -4.1096    -0.0295 C.2     
  11 C11            3.7118    -2.5035    -0.0307 C.3     
  12 C12           -0.4517    -5.2200    -0.0212 C.3     
  13 C13           -0.7789    -5.6150    -1.4627 C.3     
  14 C14            0.5132    -5.9752    -2.1987 C.3     
  15 C15           -1.7179    -6.8230    -1.4598 C.3     
  16 C16           -1.4593    -4.4419    -2.1710 C.3     
  17 O17            2.4588    -5.1281    -0.0392 O.2     
  18 C18            1.1637     3.5678     0.0106 C.ar    
  19 C19           -0.0556     4.2506     0.0259 C.ar    
  20 C20           -1.2559     3.5348     0.0388 C.ar    
  21 C21           -1.2360     2.1584     0.0313 C.ar    
  22 C22            1.1811     2.1914     0.0026 C.ar    
  23 C23           -0.0750     5.6824     0.0343 C.1     
  24 N24           -0.0904     6.8183     0.0409 N.1     
  25 H25           -2.1428    -0.1785     0.0219 H       
  26 H26           -2.0927    -2.6621     0.0081 H       
  27 H27            4.0698    -2.4206     0.9955 H       
  28 H28            4.2775    -3.2760    -0.5516 H       
  29 H29            3.8455    -1.5493    -0.5403 H       
  30 H30            0.0331    -6.0557     0.4834 H       
  31 H31           -1.3722    -4.9634     0.5031 H       
  32 H32            0.9979    -6.8109    -1.6940 H       
  33 H33            0.2800    -6.2566    -3.2256 H       
  34 H34            1.1821    -5.1146    -2.2008 H       
  35 H35           -2.6384    -6.5664    -0.9354 H       
  36 H36           -1.9510    -7.1045    -2.4867 H       
  37 H37           -1.2331    -7.6588    -0.9551 H       
  38 H38           -0.7904    -3.5813    -2.1731 H       
  39 H39           -1.6925    -4.7234    -3.1979 H       
  40 H40           -2.3799    -4.1853    -1.6467 H       
  41 H41            2.0919     4.1198     0.0001 H       
  42 H42           -2.1988     4.0614     0.0507 H       
  43 H43           -2.1634     1.6051     0.0413 H       
  44 H44            2.1232     1.6635    -0.0093 H       
@<TRIPOS>BOND
   1    1    2 1
   2    1   22 ar
   3    1   21 ar
   4    2    4 ar
   5    2    3 ar
   6    3    6 ar
   7    4    5 ar
   8    4   25 1
   9    5    8 ar
  10    5   26 1
  11    6    8 ar
  12    6    7 1
  13    7   10 am
  14    7   11 1
  15    8    9 1
  16    9   10 am
  17    9   12 1
  18   10   17 2
  19   11   27 1
  20   11   28 1
  21   11   29 1
  22   12   13 1
  23   12   30 1
  24   12   31 1
  25   13   14 1
  26   13   15 1
  27   13   16 1
  28   14   32 1
  29   14   33 1
  30   14   34 1
  31   15   35 1
  32   15   36 1
  33   15   37 1
  34   16   38 1
  35   16   39 1
  36   16   40 1
  37   18   19 ar
  38   18   22 ar
  39   18   41 1
  40   19   20 ar
  41   19   23 1
  42   20   21 ar
  43   20   42 1
  44   21   43 1
  45   22   44 1
  46   23   24 3

#	End of record

