#	Name: ASD08150615
#	Creating user name:	WinNT
#	Creation time:	15. 06. 2019 21:16

#	Modifying user name:	WinNT
#	Modification time:	15. 06. 2019 21:16

#	Program:	/corina/corina34_cracker 3.40 0067  02.08.2006

@<TRIPOS>MOLECULE
ASD08150615
  66   71    0    0    0
SMALL
NO_CHARGES


@<TRIPOS>ATOM
   1 N1             0.2481     2.4124    -1.9342 N.am    
   2 C2             0.4171     1.4876    -2.8992 C.2     
   3 C3             1.6232     0.7658    -3.0066 C.2     
   4 C4             2.6366     0.9950    -2.1331 C.2     
   5 C5             2.4623     1.9672    -1.1165 C.ar    
   6 C6             3.4815     2.2435    -0.1851 C.ar    
   7 N7             3.3179     3.1405     0.7519 N.ar    
   8 C8             2.1829     3.8442     0.8813 C.ar    
   9 C9             1.1043     3.6323    -0.0124 C.ar    
  10 C10            1.2492     2.6681    -1.0373 C.ar    
  11 C11           -0.0747     4.3702     0.1316 C.ar    
  12 C12           -0.1751     5.3037     1.1504 C.ar    
  13 C13            0.8965     5.5079     2.0308 C.ar    
  14 C14            2.0497     4.7984     1.9033 C.ar    
  15 O15           -0.4854     1.2718    -3.6900 O.2     
  16 C16           -1.4220     6.0911     1.3099 C.ar    
  17 C17           -0.9569     3.1199    -1.8522 C.ar    
  18 C18           -1.0328     4.4225    -2.3281 C.ar    
  19 C19           -2.2233     5.1177    -2.2461 C.ar    
  20 C20           -3.3389     4.5184    -1.6906 C.ar    
  21 C21           -3.2666     3.2216    -1.2159 C.ar    
  22 C22           -2.0806     2.5190    -1.3001 C.ar    
  23 C23           -4.6360     5.2804    -1.6019 C.3     
  24 C24           -1.3982     7.3364     1.9469 C.ar    
  25 N25           -5.3617     5.1615    -2.8736 N.3     
  26 C26           -6.6759     5.8143    -2.7930 C.3     
  27 C27           -2.5850     8.0332     2.0715 C.ar    
  28 C28           -3.7541     7.4789     1.5642 C.ar    
  29 N29           -3.7430     6.2981     0.9672 N.ar    
  30 C30           -2.6321     5.6040     0.8227 C.ar    
  31 C31           -5.4997     3.7536    -3.2716 C.3     
  32 C32           -6.1888     3.6772    -4.6361 C.3     
  33 N33           -7.5029     4.3300    -4.5555 N.3     
  34 C34           -7.3650     5.7378    -4.1575 C.3     
  35 C35           -8.2286     4.2111    -5.8272 C.3     
  36 O36           -4.9227     8.1575     1.6830 O.3     
  37 C37           -6.1077     7.4907     1.2436 C.3     
  38 H38            1.7412     0.0278    -3.7863 H       
  39 H39            3.5622     0.4441    -2.2113 H       
  40 H40            4.4153     1.7043    -0.2456 H       
  41 H41           -0.9007     4.2139    -0.5464 H       
  42 H42            0.8053     6.2390     2.8205 H       
  43 H43            2.8652     4.9684     2.5907 H       
  44 H44           -0.1617     4.8913    -2.7614 H       
  45 H45           -2.2830     6.1307    -2.6160 H       
  46 H46           -4.1395     2.7565    -0.7822 H       
  47 H47           -2.0259     1.5048    -0.9329 H       
  48 H48           -5.2446     4.8692    -0.7965 H       
  49 H49           -4.4272     6.3309    -1.3995 H       
  50 H50           -0.4749     7.7431     2.3323 H       
  51 H51           -7.2885     5.3076    -2.0473 H       
  52 H52           -6.5464     6.8586    -2.5090 H       
  53 H53           -2.6039     8.9973     2.5579 H       
  54 H54           -2.6622     4.6435     0.3298 H       
  55 H55           -4.5127     3.2957    -3.3365 H       
  56 H56           -6.0989     3.2235    -2.5314 H       
  57 H57           -5.5761     4.1839    -5.3817 H       
  58 H58           -6.3182     2.6329    -4.9201 H       
  59 H59           -8.3520     6.1958    -4.0926 H       
  60 H60           -6.7657     6.2680    -4.8977 H       
  61 H61           -8.3757     3.1574    -6.0645 H       
  62 H62           -9.1976     4.7025    -5.7399 H       
  63 H63           -7.6510     4.6851    -6.6208 H       
  64 H64           -6.0545     7.3268     0.1673 H       
  65 H65           -6.1950     6.5312     1.7533 H       
  66 H66           -6.9776     8.1054     1.4749 H       
@<TRIPOS>BOND
   1    1    2 am
   2    1   10 1
   3    1   17 1
   4    2    3 1
   5    2   15 2
   6    3    4 2
   7    3   38 1
   8    4    5 1
   9    4   39 1
  10    5    6 ar
  11    5   10 ar
  12    6    7 ar
  13    6   40 1
  14    7    8 ar
  15    8    9 ar
  16    8   14 ar
  17    9   10 ar
  18    9   11 ar
  19   11   12 ar
  20   11   41 1
  21   12   13 ar
  22   12   16 1
  23   13   14 ar
  24   13   42 1
  25   14   43 1
  26   16   24 ar
  27   16   30 ar
  28   17   18 ar
  29   17   22 ar
  30   18   19 ar
  31   18   44 1
  32   19   20 ar
  33   19   45 1
  34   20   21 ar
  35   20   23 1
  36   21   22 ar
  37   21   46 1
  38   22   47 1
  39   23   25 1
  40   23   48 1
  41   23   49 1
  42   24   27 ar
  43   24   50 1
  44   25   26 1
  45   25   31 1
  46   26   34 1
  47   26   51 1
  48   26   52 1
  49   27   28 ar
  50   27   53 1
  51   28   29 ar
  52   28   36 1
  53   29   30 ar
  54   30   54 1
  55   31   32 1
  56   31   55 1
  57   31   56 1
  58   32   33 1
  59   32   57 1
  60   32   58 1
  61   33   34 1
  62   33   35 1
  63   34   59 1
  64   34   60 1
  65   35   61 1
  66   35   62 1
  67   35   63 1
  68   36   37 1
  69   37   64 1
  70   37   65 1
  71   37   66 1

#	End of record

