#	Name: ASD01885381
#	Creating user name:	WinNT
#	Creation time:	15. 06. 2019 19:49

#	Modifying user name:	WinNT
#	Modification time:	15. 06. 2019 19:49

#	Program:	/corina/corina34_cracker 3.40 0067  02.08.2006

@<TRIPOS>MOLECULE
ASD01885381
  28   30    0    0    0
SMALL
NO_CHARGES


@<TRIPOS>ATOM
   1 C1            -0.0168     1.3902     0.0097 C.ar    
   2 C2             0.0021    -0.0041     0.0020 C.ar    
   3 N3            -1.1145    -0.7759     0.0185 N.2     
   4 C4            -2.1893    -0.5674    -0.6488 C.2     
   5 C5            -2.3479     0.6311    -1.5465 C.3     
   6 C6            -2.2770     1.8709    -0.6912 C.2     
   7 N7            -1.1813     2.1455     0.0184 N.am    
   8 C8             1.1911     2.0898     0.0019 C.ar    
   9 C9             2.3951     1.4182    -0.0174 C.ar    
  10 C10            2.4174     0.0325    -0.0297 C.ar    
  11 C11            1.2380    -0.6742    -0.0203 C.ar    
  12 Br12           4.0179     2.3889    -0.0276 Br      
  13 C13           -3.3009    -1.5283    -0.5342 C.ar    
  14 C14           -3.2007    -2.6608     0.2893 C.ar    
  15 C15           -4.2866    -3.5165     0.3443 C.ar    
  16 N16           -5.3693    -3.2550    -0.3636 N.ar    
  17 N17           -5.4690    -2.2228    -1.1183 N.ar    
  18 C18           -4.4973    -1.3407    -1.2389 C.ar    
  19 O19           -3.2252     2.6260    -0.6482 O.2     
  20 H20           -1.5458     0.6468    -2.2845 H       
  21 H21           -3.3127     0.5873    -2.0517 H       
  22 H22           -1.1997     2.9335     0.5838 H       
  23 H23            1.1825     3.1697     0.0108 H       
  24 H24            3.3612    -0.4922    -0.0471 H       
  25 H25            1.2611    -1.7539    -0.0302 H       
  26 H26           -2.3056    -2.8578     0.8606 H       
  27 H27           -4.2481    -4.3985     0.9664 H       
  28 H28           -4.6187    -0.4836    -1.8847 H       
@<TRIPOS>BOND
   1    1    2 ar
   2    1    8 ar
   3    1    7 1
   4    2    3 1
   5    2   11 ar
   6    3    4 2
   7    4    5 1
   8    4   13 1
   9    5    6 1
  10    5   20 1
  11    5   21 1
  12    6    7 am
  13    6   19 2
  14    7   22 1
  15    8    9 ar
  16    8   23 1
  17    9   10 ar
  18    9   12 1
  19   10   11 ar
  20   10   24 1
  21   11   25 1
  22   13   14 ar
  23   13   18 ar
  24   14   15 ar
  25   14   26 1
  26   15   16 ar
  27   15   27 1
  28   16   17 ar
  29   17   18 ar
  30   18   28 1

#	End of record

