#	Name: ASD01916155
#	Creating user name:	WinNT
#	Creation time:	15. 06. 2019 20:06

#	Modifying user name:	WinNT
#	Modification time:	15. 06. 2019 20:06

#	Program:	/corina/corina34_cracker 3.40 0067  02.08.2006

@<TRIPOS>MOLECULE
ASD01916155
  42   45    0    0    0
SMALL
NO_CHARGES


@<TRIPOS>ATOM
   1 C1             0.3400     1.4382    -0.5353 C.ar    
   2 C2             0.3113     0.0585    -0.4750 C.ar    
   3 C3             1.4984    -0.6590    -0.4365 C.ar    
   4 C4             2.7124     0.0108    -0.4586 C.ar    
   5 C5             2.7370     1.3931    -0.5191 C.ar    
   6 C6             1.5504     2.1058    -0.5573 C.ar    
   7 O7             1.4713    -2.0164    -0.3767 O.3     
   8 C8             2.7314    -2.6895    -0.3397 C.3     
   9 C9             2.5042    -4.1779    -0.2753 C.2     
  10 C10            1.2584    -4.8178    -0.2542 C.2     
  11 N11            3.4379    -5.0960    -0.2351 N.2     
  12 N12            2.8173    -6.3471    -0.1856 N.pl3   
  13 C13            1.4794    -6.1446    -0.1936 C.2     
  14 C14            3.4668    -7.6601    -0.1427 C.3     
  15 C15            2.4640    -8.7035     0.3619 C.3     
  16 N16            1.1825    -8.5214    -0.3367 N.am    
  17 C17            0.4564    -7.2542    -0.1361 C.3     
  18 C18            0.6870    -9.4832    -1.1403 C.2     
  19 C19           -0.6707    -9.3408    -1.7159 C.ar    
  20 O20            1.3539   -10.4671    -1.3928 O.2     
  21 C21           -1.1287   -10.2536    -2.6688 C.ar    
  22 C22           -3.1528    -9.0048    -2.7084 C.ar    
  23 N23           -2.6431    -8.1911    -1.7996 N.ar    
  24 N24           -1.4610    -8.3478    -1.3246 N.ar    
  25 C25           -2.4087   -10.0754    -3.1768 C.ar    
  26 F26            3.9189     2.0473    -0.5407 F       
  27 H27           -0.5843     1.9959    -0.5698 H       
  28 H28           -0.6350    -0.4617    -0.4575 H       
  29 H29            3.6375    -0.5456    -0.4283 H       
  30 H30            1.5705     3.1846    -0.6045 H       
  31 H31            3.2992    -2.4472    -1.2380 H       
  32 H32            3.2890    -2.3686     0.5402 H       
  33 H33            0.2933    -4.3338    -0.2816 H       
  34 H34            3.8032    -7.9326    -1.1430 H       
  35 H35            4.3221    -7.6213     0.5318 H       
  36 H36            2.8483    -9.7039     0.1627 H       
  37 H37            2.3153    -8.5767     1.4342 H       
  38 H38           -0.0321    -7.2558     0.8383 H       
  39 H39           -0.2846    -7.1214    -0.9244 H       
  40 H40           -0.5068   -11.0720    -3.0004 H       
  41 H41           -4.1522    -8.8379    -3.0820 H       
  42 H42           -2.8124   -10.7516    -3.9158 H       
@<TRIPOS>BOND
   1    1    2 ar
   2    1    6 ar
   3    1   27 1
   4    2    3 ar
   5    2   28 1
   6    3    4 ar
   7    3    7 1
   8    4    5 ar
   9    4   29 1
  10    5    6 ar
  11    5   26 1
  12    6   30 1
  13    7    8 1
  14    8    9 1
  15    8   31 1
  16    8   32 1
  17    9   10 1
  18    9   11 2
  19   10   13 2
  20   10   33 1
  21   11   12 1
  22   12   13 1
  23   12   14 1
  24   13   17 1
  25   14   15 1
  26   14   34 1
  27   14   35 1
  28   15   16 1
  29   15   36 1
  30   15   37 1
  31   16   17 1
  32   16   18 am
  33   17   38 1
  34   17   39 1
  35   18   19 1
  36   18   20 2
  37   19   21 ar
  38   19   24 ar
  39   21   25 ar
  40   21   40 1
  41   22   23 ar
  42   22   25 ar
  43   22   41 1
  44   23   24 ar
  45   25   42 1

#	End of record

