#	Name: ASD02030805
#	Creating user name:	WinNT
#	Creation time:	15. 06. 2019 20:16

#	Modifying user name:	WinNT
#	Modification time:	15. 06. 2019 20:16

#	Program:	/corina/corina34_cracker 3.40 0067  02.08.2006

@<TRIPOS>MOLECULE
ASD02030805
  80   83    0    0    0
SMALL
NO_CHARGES


@<TRIPOS>ATOM
   1 H1             0.6114    -0.3405     0.1490 H       
   2 C2             0.5156     0.7444     0.1933 C.3     
   3 C3            -0.2427     1.2664    -1.0511 C.3     
   4 C4             0.7605     2.1529    -1.8361 C.3     
   5 C5             2.1251     1.6168    -1.3845 C.3     
   6 H6             2.3422     0.6687    -1.8764 H       
   7 C7             3.2826     2.5836    -1.5368 C.3     
   8 H8             3.0950     3.4841    -0.9519 H       
   9 C9             3.5099     2.9385    -3.0082 C.3     
  10 C10            4.7513     3.7800    -3.1126 C.2     
  11 C11            5.7196     3.7344    -2.2441 C.2     
  12 C12            6.9199     4.6402    -2.4595 C.3     
  13 C13            8.1915     3.7913    -2.3735 C.3     
  14 O14            9.3379     4.6399    -2.4611 O.3     
  15 C15            8.2122     2.7851    -3.5260 C.3     
  16 C16            8.1895     3.5359    -4.8589 C.3     
  17 C17            8.2128     3.0410    -1.0405 C.3     
  18 C18            7.0391     2.0615    -0.9835 C.3     
  19 C19            5.7219     2.8407    -1.0363 C.3     
  20 C20            5.6284     3.7170     0.2144 C.3     
  21 C21            4.5483     1.8782    -1.0242 C.3     
  22 H22            4.7747     1.0420    -1.6857 H       
  23 C23            4.3189     1.3270     0.3598 C.2     
  24 O24            5.1401     1.5008     1.2280 O.2     
  25 C25            3.0439     0.5502     0.6545 C.3     
  26 C26            1.8940     1.3993     0.1356 C.3     
  27 C27            1.8608     2.7483     0.8566 C.3     
  28 C28           -0.2142     1.1588     1.4726 C.3     
  29 H29           -0.2458     2.2465     1.5367 H       
  30 C30            0.5275     0.5976     2.6874 C.3     
  31 C31           -1.6413     0.6077     1.4469 C.3     
  32 C32           -2.4097     1.1249     2.6647 C.3     
  33 C33           -3.8367     0.5738     2.6390 C.3     
  34 H34           -3.8051    -0.5138     2.5749 H       
  35 O35           -4.5294     1.0980     1.5044 O.3     
  36 C36           -4.5666     0.9883     3.9183 C.3     
  37 C37           -4.7208     2.5102     3.9472 C.3     
  38 C38           -5.9496     0.3347     3.9510 C.3     
  39 H39           -0.5662     0.4296    -1.6701 H       
  40 H40           -1.1039     1.8591    -0.7429 H       
  41 H41            0.6315     2.0217    -2.9105 H       
  42 H42            0.6473     3.2009    -1.5586 H       
  43 H43            3.6370     2.0253    -3.5894 H       
  44 H44            2.6549     3.4994    -3.3856 H       
  45 H45            4.8440     4.4562    -3.9496 H       
  46 H46            6.8560     5.1052    -3.4432 H       
  47 H47            6.9408     5.4100    -1.6881 H       
  48 H48            9.3892     5.1481    -3.2822 H       
  49 H49            9.1173     2.1810    -3.4646 H       
  50 H50            7.3379     2.1377    -3.4588 H       
  51 H51            7.2843     4.1401    -4.9202 H       
  52 H52            9.0638     4.1834    -4.9261 H       
  53 H53            8.2042     2.8192    -5.6799 H       
  54 H54            9.1494     2.4909    -0.9487 H       
  55 H55            8.1300     3.7548    -0.2210 H       
  56 H56            7.0927     1.3803    -1.8327 H       
  57 H57            7.0868     1.4908    -0.0561 H       
  58 H58            4.5931     4.0218     0.3679 H       
  59 H59            5.9730     3.1521     1.0805 H       
  60 H60            6.2523     4.6015     0.0858 H       
  61 H61            3.0629    -0.4094     0.1378 H       
  62 H62            2.9399     0.3959     1.7285 H       
  63 H63            1.5362     2.6018     1.8868 H       
  64 H64            2.8577     3.1890     0.8490 H       
  65 H65            1.1648     3.4152     0.3477 H       
  66 H66            1.5147     1.0549     2.7535 H       
  67 H67           -0.0374     0.8203     3.5927 H       
  68 H68            0.6334    -0.4820     2.5816 H       
  69 H69           -2.1412     0.9359     0.5356 H       
  70 H70           -1.6106    -0.4815     1.4724 H       
  71 H71           -1.9098     0.7967     3.5760 H       
  72 H72           -2.4403     2.2142     2.6392 H       
  73 H73           -4.5959     2.0627     1.4952 H       
  74 H74           -3.9913     0.6648     4.7858 H       
  75 H75           -5.2408     2.8054     4.8586 H       
  76 H76           -3.7356     2.9758     3.9239 H       
  77 H77           -5.2961     2.8336     3.0797 H       
  78 H78           -5.8396    -0.7495     3.9304 H       
  79 H79           -6.4695     0.6300     4.8623 H       
  80 H80           -6.5248     0.6581     3.0835 H       
@<TRIPOS>BOND
   1    1    2 1
   2    2   26 1
   3    2    3 1
   4    2   28 1
   5    3    4 1
   6    3   39 1
   7    3   40 1
   8    4    5 1
   9    4   41 1
  10    4   42 1
  11    5   26 1
  12    5    6 1
  13    5    7 1
  14    7   21 1
  15    7    8 1
  16    7    9 1
  17    9   10 1
  18    9   43 1
  19    9   44 1
  20   10   11 2
  21   10   45 1
  22   11   19 1
  23   11   12 1
  24   12   13 1
  25   12   46 1
  26   12   47 1
  27   13   14 1
  28   13   15 1
  29   13   17 1
  30   14   48 1
  31   15   16 1
  32   15   49 1
  33   15   50 1
  34   16   51 1
  35   16   52 1
  36   16   53 1
  37   17   18 1
  38   17   54 1
  39   17   55 1
  40   18   19 1
  41   18   56 1
  42   18   57 1
  43   19   20 1
  44   19   21 1
  45   20   58 1
  46   20   59 1
  47   20   60 1
  48   21   22 1
  49   21   23 1
  50   23   24 2
  51   23   25 1
  52   25   26 1
  53   25   61 1
  54   25   62 1
  55   26   27 1
  56   27   63 1
  57   27   64 1
  58   27   65 1
  59   28   29 1
  60   28   30 1
  61   28   31 1
  62   30   66 1
  63   30   67 1
  64   30   68 1
  65   31   32 1
  66   31   69 1
  67   31   70 1
  68   32   33 1
  69   32   71 1
  70   32   72 1
  71   33   34 1
  72   33   35 1
  73   33   36 1
  74   35   73 1
  75   36   37 1
  76   36   38 1
  77   36   74 1
  78   37   75 1
  79   37   76 1
  80   37   77 1
  81   38   78 1
  82   38   79 1
  83   38   80 1

#	End of record

