#	Name: ASD01883984
#	Creating user name:	WinNT
#	Creation time:	15. 06. 2019 19:47

#	Modifying user name:	WinNT
#	Modification time:	15. 06. 2019 19:47

#	Program:	/corina/corina34_cracker 3.40 0067  02.08.2006

@<TRIPOS>MOLECULE
ASD01883984
  58   63    0    0    0
SMALL
NO_CHARGES


@<TRIPOS>ATOM
   1 C1            -2.3482     1.3292     1.1351 C.2     
   2 C2            -2.2166    -0.0705     1.1451 C.2     
   3 C3            -1.7284    -0.7023     0.0331 C.2     
   4 C4            -1.3674     0.0597    -1.0990 C.2     
   5 C5            -1.5019     1.4004    -1.0867 C.2     
   6 N6            -1.9813     2.0408     0.0188 N.pl3   
   7 N7            -2.7760     2.2096     2.0273 N.2     
   8 N8            -2.7006     3.3948     1.5321 N.2     
   9 C9            -2.2240     3.3496     0.3158 C.2     
  10 N10           -1.5884    -2.0881     0.0190 N.pl3   
  11 C11           -1.9840     4.5287    -0.5916 C.3     
  12 C12           -2.7628    -2.9666     0.1297 C.3     
  13 C13           -2.7166    -3.9872    -1.0125 C.3     
  14 N14           -1.4203    -4.6779    -0.9956 N.3     
  15 C15           -0.3146    -3.7422    -1.2399 C.3     
  16 C16           -0.2629    -2.7116    -0.1132 C.3     
  17 C17           -3.2411     4.7981    -1.4210 C.3     
  18 C18           -1.3994    -5.7820    -1.9644 C.3     
  19 C19           -3.2403     6.0331    -2.3241 C.3     
  20 C20           -3.1343     4.6360    -2.9387 C.3     
  21 Cl21          -2.6668    -0.9858     2.5498 Cl      
  22 C22           -1.4630    -5.2157    -3.3844 C.3     
  23 C23           -1.5692    -6.2140    -4.5389 C.3     
  24 C24           -0.2597    -5.4605    -4.2971 C.3     
  25 C25           -2.3937    -5.8104    -5.7341 C.ar    
  26 C26           -3.4892    -6.5673    -6.1054 C.ar    
  27 C27           -4.2455    -6.1972    -7.2017 C.ar    
  28 C28           -3.9065    -5.0699    -7.9265 C.ar    
  29 C29           -2.8115    -4.3125    -7.5546 C.ar    
  30 C30           -2.0578    -4.6802    -6.4557 C.ar    
  31 H31           -0.9815    -0.4339    -1.9787 H       
  32 H32           -1.2224     1.9741    -1.9581 H       
  33 H33           -1.7497     5.4076     0.0090 H       
  34 H34           -1.1491     4.3106    -1.2575 H       
  35 H35           -2.7415    -3.4873     1.0870 H       
  36 H36           -3.6732    -2.3722     0.0531 H       
  37 H37           -3.5181    -4.7145    -0.8830 H       
  38 H38           -2.8422    -3.4727    -1.9652 H       
  39 H39            0.6260    -4.2918    -1.2753 H       
  40 H40           -0.4736    -3.2311    -2.1894 H       
  41 H41            0.4802    -1.9495    -0.3478 H       
  42 H42           -0.0021    -3.2053     0.8230 H       
  43 H43           -4.1838     4.5197    -0.9499 H       
  44 H44           -0.4801    -6.3549    -1.8426 H       
  45 H45           -2.2578    -6.4316    -1.7936 H       
  46 H46           -4.1826     6.5670    -2.4475 H       
  47 H47           -2.3442     6.6537    -2.3274 H       
  48 H48           -2.1684     4.3374    -3.3462 H       
  49 H49           -4.0067     4.2507    -3.4663 H       
  50 H50           -1.9898    -4.2672    -3.4891 H       
  51 H51           -1.5937    -7.2742    -4.2869 H       
  52 H52            0.0054    -4.6729    -5.0025 H       
  53 H53            0.5772    -6.0250    -3.8860 H       
  54 H54           -3.7540    -7.4481    -5.5392 H       
  55 H55           -5.1009    -6.7890    -7.4923 H       
  56 H56           -4.4970    -4.7812    -8.7834 H       
  57 H57           -2.5465    -3.4320    -8.1211 H       
  58 H58           -1.2045    -4.0864    -6.1630 H       
@<TRIPOS>BOND
   1    1    2 1
   2    1    7 2
   3    1    6 1
   4    2    3 2
   5    2   21 1
   6    3    4 1
   7    3   10 1
   8    4    5 2
   9    4   31 1
  10    5    6 1
  11    5   32 1
  12    6    9 1
  13    7    8 1
  14    8    9 2
  15    9   11 1
  16   10   12 1
  17   10   16 1
  18   11   17 1
  19   11   33 1
  20   11   34 1
  21   12   13 1
  22   12   35 1
  23   12   36 1
  24   13   14 1
  25   13   37 1
  26   13   38 1
  27   14   15 1
  28   14   18 1
  29   15   16 1
  30   15   39 1
  31   15   40 1
  32   16   41 1
  33   16   42 1
  34   17   19 1
  35   17   20 1
  36   17   43 1
  37   18   22 1
  38   18   44 1
  39   18   45 1
  40   19   20 1
  41   19   46 1
  42   19   47 1
  43   20   48 1
  44   20   49 1
  45   22   23 1
  46   22   24 1
  47   22   50 1
  48   23   24 1
  49   23   25 1
  50   23   51 1
  51   24   52 1
  52   24   53 1
  53   25   26 ar
  54   25   30 ar
  55   26   27 ar
  56   26   54 1
  57   27   28 ar
  58   27   55 1
  59   28   29 ar
  60   28   56 1
  61   29   30 ar
  62   29   57 1
  63   30   58 1

#	End of record

