#	Name: ASD09740293
#	Creating user name:	WinNT
#	Creation time:	15. 06. 2019 21:23

#	Modifying user name:	WinNT
#	Modification time:	15. 06. 2019 21:23

#	Program:	/corina/corina34_cracker 3.40 0067  02.08.2006

@<TRIPOS>MOLECULE
ASD09740293
  36   39    0    0    0
SMALL
NO_CHARGES


@<TRIPOS>ATOM
   1 C1            -0.0168     1.3891     0.0097 C.ar    
   2 N2             1.6762     7.6845     0.0276 N.2     
   3 O3             1.3385     6.5197     0.0244 O.3     
   4 C4             2.9806     7.7797     0.0161 C.2     
   5 N5             3.4762     6.5248     0.0048 N.2     
   6 C6             2.4231     5.7295     0.0102 C.2     
   7 C7             2.4358     4.2510     0.0021 C.ar    
   8 C8             3.7706     9.0372     0.0152 C.ar    
   9 C9             3.1374    10.2823     0.0278 C.ar    
  10 C10            3.9096    11.4266     0.0270 C.ar    
  11 N11            5.2264    11.3545     0.0144 N.ar    
  12 C12            5.8629    10.1994     0.0023 C.ar    
  13 C13            5.1672     9.0071     0.0076 C.ar    
  14 C14            1.2360     3.5421     0.0093 C.ar    
  15 C15            1.2566     2.1512     0.0016 C.ar    
  16 C16            2.4753     1.4743    -0.0132 C.ar    
  17 C17            3.6622     2.1813    -0.0198 C.ar    
  18 C18            3.6500     3.5615    -0.0181 C.ar    
  19 C19            0.0021    -0.0041     0.0020 C.ar    
  20 C20           -1.1852    -0.7078     0.0101 C.ar    
  21 C21           -2.3923    -0.0326     0.0252 C.ar    
  22 C22           -2.4169     1.3504     0.0329 C.ar    
  23 C23           -1.2355     2.0641     0.0308 C.ar    
  24 H24            2.0595    10.3487     0.0377 H       
  25 H25            3.4290    12.3937     0.0363 H       
  26 H26            6.9428    10.1862    -0.0077 H       
  27 H27            5.6949     8.0648    -0.0025 H       
  28 H28            0.2942     4.0704     0.0211 H       
  29 H29            2.4915     0.3944    -0.0191 H       
  30 H30            4.6034     1.6518    -0.0306 H       
  31 H31            4.5809     4.1089    -0.0237 H       
  32 H32            0.9440    -0.5323    -0.0105 H       
  33 H33           -1.1717    -1.7877     0.0041 H       
  34 H34           -3.3190    -0.5872     0.0308 H       
  35 H35           -3.3621     1.8726     0.0444 H       
  36 H36           -1.2558     3.1439     0.0368 H       
@<TRIPOS>BOND
   1    1   19 ar
   2    1   15 1
   3    1   23 ar
   4    2    3 1
   5    2    4 2
   6    3    6 1
   7    4    5 1
   8    4    8 1
   9    5    6 2
  10    6    7 1
  11    7   14 ar
  12    7   18 ar
  13    8    9 ar
  14    8   13 ar
  15    9   10 ar
  16    9   24 1
  17   10   11 ar
  18   10   25 1
  19   11   12 ar
  20   12   13 ar
  21   12   26 1
  22   13   27 1
  23   14   15 ar
  24   14   28 1
  25   15   16 ar
  26   16   17 ar
  27   16   29 1
  28   17   18 ar
  29   17   30 1
  30   18   31 1
  31   19   20 ar
  32   19   32 1
  33   20   21 ar
  34   20   33 1
  35   21   22 ar
  36   21   34 1
  37   22   23 ar
  38   22   35 1
  39   23   36 1

#	End of record

