#	Name: ASD00190015
#	Creating user name:	WinNT
#	Creation time:	15. 06. 2019 18:33

#	Modifying user name:	WinNT
#	Modification time:	15. 06. 2019 18:33

#	Program:	/corina/corina34_cracker 3.40 0067  02.08.2006

@<TRIPOS>MOLECULE
ASD00190015
  47   50    0    0    0
SMALL
NO_CHARGES


@<TRIPOS>ATOM
   1 C1            -0.0169     1.3984     0.0097 C.ar    
   2 C2             0.0021    -0.0041     0.0020 C.ar    
   3 C3             1.1973    -0.6585    -0.0128 C.ar    
   4 C4             2.3993     0.0452    -0.0200 C.ar    
   5 C5             2.4163     1.4083    -0.0129 C.ar    
   6 C6             1.2069     2.1150     0.0019 C.ar    
   7 C7             1.1683     3.5278     0.0098 C.ar    
   8 N8             0.0112     4.1555     0.0242 N.ar    
   9 C9            -1.1566     3.5090     0.0319 C.ar    
  10 C10           -1.2192     2.1288     0.0193 C.ar    
  11 C11           -2.4168     4.2907     0.0482 C.ar    
  12 C12           -2.3661     5.6833     0.0552 C.ar    
  13 C13           -3.5506     6.3992     0.0699 C.ar    
  14 C14           -4.7482     5.6982     0.0772 C.ar    
  15 C15           -4.7248     4.3156     0.0697 C.ar    
  16 N16           -3.5832     3.6585     0.0505 N.ar    
  17 C17            3.7019    -0.7124    -0.0354 C.3     
  18 N18            2.3513     4.2541     0.0027 N.am    
  19 C19            2.3149     5.6014     0.0102 C.2     
  20 C20            3.5724     6.3733     0.0028 C.ar    
  21 O21            1.2461     6.1806     0.0232 O.2     
  22 C22            3.5369     7.7705     0.0105 C.ar    
  23 C23            4.7126     8.4871     0.0040 C.ar    
  24 C24            5.9336     7.8230    -0.0103 C.ar    
  25 C25            5.9733     6.4335    -0.0180 C.ar    
  26 C26            4.8022     5.7094    -0.0062 C.ar    
  27 O27            7.0901     8.5330    -0.0171 O.3     
  28 C28            8.3091     7.7873    -0.0318 C.3     
  29 H29           -0.9233    -0.5609     0.0082 H       
  30 H30            1.2128    -1.7384    -0.0188 H       
  31 H31            3.3563     1.9400    -0.0182 H       
  32 H32           -2.1722     1.6207     0.0210 H       
  33 H33           -1.4160     6.1967     0.0495 H       
  34 H34           -3.5429     7.4792     0.0760 H       
  35 H35           -5.6896     6.2274     0.0891 H       
  36 H36           -5.6551     3.7670     0.0757 H       
  37 H37            4.0068    -0.8899    -1.0667 H       
  38 H38            4.4679    -0.1284     0.4746 H       
  39 H39            3.5730    -1.6670     0.4748 H       
  40 H40            3.2040     3.7920    -0.0076 H       
  41 H41            2.5886     8.2872     0.0213 H       
  42 H42            4.6861     9.5668     0.0096 H       
  43 H43            6.9240     5.9212    -0.0295 H       
  44 H44            4.8338     4.6298    -0.0077 H       
  45 H45            8.3589     7.1550     0.8547 H       
  46 H46            8.3429     7.1639    -0.9252 H       
  47 H47            9.1553     8.4744    -0.0359 H       
@<TRIPOS>BOND
   1    1    2 ar
   2    1    6 ar
   3    1   10 ar
   4    2    3 ar
   5    2   29 1
   6    3    4 ar
   7    3   30 1
   8    4    5 ar
   9    4   17 1
  10    5    6 ar
  11    5   31 1
  12    6    7 ar
  13    7    8 ar
  14    7   18 1
  15    8    9 ar
  16    9   10 ar
  17    9   11 1
  18   10   32 1
  19   11   12 ar
  20   11   16 ar
  21   12   13 ar
  22   12   33 1
  23   13   14 ar
  24   13   34 1
  25   14   15 ar
  26   14   35 1
  27   15   16 ar
  28   15   36 1
  29   17   37 1
  30   17   38 1
  31   17   39 1
  32   18   19 am
  33   18   40 1
  34   19   20 1
  35   19   21 2
  36   20   22 ar
  37   20   26 ar
  38   22   23 ar
  39   22   41 1
  40   23   24 ar
  41   23   42 1
  42   24   25 ar
  43   24   27 1
  44   25   26 ar
  45   25   43 1
  46   26   44 1
  47   27   28 1
  48   28   45 1
  49   28   46 1
  50   28   47 1

#	End of record

