#	Name: ASD08150075
#	Creating user name:	WinNT
#	Creation time:	15. 06. 2019 21:15

#	Modifying user name:	WinNT
#	Modification time:	15. 06. 2019 21:15

#	Program:	/corina/corina34_cracker 3.40 0067  02.08.2006

@<TRIPOS>MOLECULE
ASD08150075
  57   58    0    0    0
SMALL
NO_CHARGES


@<TRIPOS>ATOM
   1 C1             0.0604     0.9291     0.2696 C.2     
   2 N2            -0.1093    -0.3937     0.0748 N.am    
   3 O3             1.1788     1.3852     0.4019 O.2     
   4 O4            -1.0091     1.7459     0.3121 O.3     
   5 C5             1.0547    -1.2816     0.0225 C.3     
   6 C6             1.4290    -1.7021     1.4204 C.ar    
   7 C7             0.7931    -2.7787     2.0108 C.ar    
   8 C8             1.1344    -3.1661     3.2921 C.ar    
   9 C9             2.1159    -2.4740     3.9866 C.ar    
  10 C10            2.7524    -1.3942     3.3920 C.ar    
  11 C11            2.4115    -1.0143     2.1083 C.ar    
  12 O12            2.4531    -2.8530     5.2474 O.3     
  13 C13            3.4721    -2.0946     5.9021 C.3     
  14 C14           -2.2894    -0.6237     1.1591 C.3     
  15 C15           -1.4578    -0.9435    -0.0847 C.3     
  16 C16           -2.1204    -0.3207    -1.3152 C.3     
  17 C17           -1.3257    -0.6965    -2.5674 C.3     
  18 C18           -1.9346    -0.0224    -3.7699 C.2     
  19 C19           -1.4605     1.1251    -4.1876 C.2     
  20 C20           -3.0891    -0.6684    -4.4917 C.3     
  21 O21           -3.4577    -0.8098    -1.4350 O.3     
  22 C22           -0.7513     3.1589     0.5253 C.3     
  23 C23           -2.0573     3.9106     0.5431 C.ar    
  24 C24           -2.7346     4.0912     1.7345 C.ar    
  25 C25           -3.9326     4.7808     1.7508 C.ar    
  26 C26           -4.4530     5.2902     0.5758 C.ar    
  27 C27           -3.7752     5.1104    -0.6154 C.ar    
  28 C28           -2.5750     4.4245    -0.6311 C.ar    
  29 H29            0.8123    -2.1640    -0.5697 H       
  30 H30            1.8926    -0.7558    -0.4353 H       
  31 H31            0.0288    -3.3169     1.4699 H       
  32 H32            0.6372    -4.0068     3.7530 H       
  33 H33            3.5168    -0.8539     3.9305 H       
  34 H34            2.9100    -0.1767     1.6431 H       
  35 H35            3.6439    -2.5013     6.8987 H       
  36 H36            4.3942    -2.1493     5.3234 H       
  37 H37            3.1554    -1.0548     5.9836 H       
  38 H38           -2.3505     0.4570     1.2873 H       
  39 H39           -3.2927    -1.0328     1.0405 H       
  40 H40           -1.8174    -1.0675     2.0357 H       
  41 H41           -1.3967    -2.0243    -0.2129 H       
  42 H42           -2.1384     0.7639    -1.2082 H       
  43 H43           -0.2918    -0.3707    -2.4530 H       
  44 H44           -1.3530    -1.7775    -2.7043 H       
  45 H45           -0.5826     1.5483    -3.7221 H       
  46 H46           -1.9474     1.6479    -4.9975 H       
  47 H47           -4.0275    -0.3285    -4.0537 H       
  48 H48           -3.0590    -0.3920    -5.5457 H       
  49 H49           -3.0157    -1.7518    -4.3980 H       
  50 H50           -3.5179    -1.7699    -1.5338 H       
  51 H51           -0.2405     3.2952     1.4785 H       
  52 H52           -0.1240     3.5394    -0.2808 H       
  53 H53           -2.3281     3.6933     2.6525 H       
  54 H54           -4.4622     4.9213     2.6816 H       
  55 H55           -5.3893     5.8283     0.5885 H       
  56 H56           -4.1819     5.5080    -1.5335 H       
  57 H57           -2.0436     4.2872    -1.5612 H       
@<TRIPOS>BOND
   1    1    2 am
   2    1    3 2
   3    1    4 1
   4    2    5 1
   5    2   15 1
   6    4   22 1
   7    5    6 1
   8    5   29 1
   9    5   30 1
  10    6    7 ar
  11    6   11 ar
  12    7    8 ar
  13    7   31 1
  14    8    9 ar
  15    8   32 1
  16    9   10 ar
  17    9   12 1
  18   10   11 ar
  19   10   33 1
  20   11   34 1
  21   12   13 1
  22   13   35 1
  23   13   36 1
  24   13   37 1
  25   14   15 1
  26   14   38 1
  27   14   39 1
  28   14   40 1
  29   15   16 1
  30   15   41 1
  31   16   17 1
  32   16   21 1
  33   16   42 1
  34   17   18 1
  35   17   43 1
  36   17   44 1
  37   18   19 2
  38   18   20 1
  39   19   45 1
  40   19   46 1
  41   20   47 1
  42   20   48 1
  43   20   49 1
  44   21   50 1
  45   22   23 1
  46   22   51 1
  47   22   52 1
  48   23   24 ar
  49   23   28 ar
  50   24   25 ar
  51   24   53 1
  52   25   26 ar
  53   25   54 1
  54   26   27 ar
  55   26   55 1
  56   27   28 ar
  57   27   56 1
  58   28   57 1

#	End of record

