#	Name: ASD02490004
#	Creating user name:	WinNT
#	Creation time:	15. 06. 2019 20:22

#	Modifying user name:	WinNT
#	Modification time:	15. 06. 2019 20:22

#	Program:	/corina/corina34_cracker 3.40 0067  02.08.2006

@<TRIPOS>MOLECULE
ASD02490004
  50   51    0    0    0
SMALL
NO_CHARGES


@<TRIPOS>ATOM
   1 C1             2.4730     5.3630    -3.5588 C.2     
   2 C2             3.1813     4.3017    -4.3607 C.3     
   3 C3             4.1526     4.9652    -5.3391 C.3     
   4 O4             2.9914     6.4473    -3.3962 O.2     
   5 N5             1.2609     5.1090    -3.0270 N.am    
   6 C6             3.9576     3.3819    -3.4162 C.3     
   7 O7             2.2207     3.5349    -5.0895 O.3     
   8 F8             5.0931     5.7159    -4.6256 F       
   9 F9             4.8102     3.9800    -6.0836 F       
  10 F10            3.4428     5.8062    -6.2028 F       
  11 C11            0.6504     6.0534    -2.1943 C.ar    
  12 C12           -0.7221     6.0130    -1.9852 C.ar    
  13 C13           -1.3215     6.9465    -1.1628 C.ar    
  14 C14           -0.5567     7.9209    -0.5478 C.ar    
  15 C15            0.8097     7.9641    -0.7542 C.ar    
  16 C16            1.4163     7.0295    -1.5707 C.ar    
  17 C17           -1.5563     4.9519    -2.6554 C.3     
  18 S18           -1.3254     9.1102     0.5008 S.o2    
  19 O19           -0.4362    10.2162     0.5725 O.2     
  20 O20           -2.6717     9.2226     0.0604 O.2     
  21 N21           -1.3838     8.4577     2.0217 N.am    
  22 C22           -0.3343     8.6777     2.9168 C.ar    
  23 C23           -0.5571     9.3878     4.0897 C.ar    
  24 C24            0.4827     9.6031     4.9728 C.ar    
  25 C25            1.7445     9.1128     4.6904 C.ar    
  26 C26            1.9697     8.4055     3.5236 C.ar    
  27 C27            0.9332     8.1821     2.6387 C.ar    
  28 C28           -2.5362     7.6498     2.4284 C.3     
  29 C29           -2.2264     6.1688     2.2012 C.3     
  30 H30            0.8117     4.2716    -3.2214 H       
  31 H31            3.2656     2.9093    -2.7192 H       
  32 H32            4.4699     2.6144    -3.9962 H       
  33 H33            4.6903     3.9669    -2.8603 H       
  34 H34            1.6908     4.0547    -5.7093 H       
  35 H35           -2.3887     6.9158    -1.0001 H       
  36 H36            1.4042     8.7265    -0.2727 H       
  37 H37            2.4844     7.0606    -1.7275 H       
  38 H38           -1.6162     4.0755    -2.0101 H       
  39 H39           -2.5590     5.3388    -2.8368 H       
  40 H40           -1.0969     4.6740    -3.6040 H       
  41 H41           -1.5422     9.7713     4.3107 H       
  42 H42            0.3103    10.1554     5.8847 H       
  43 H43            2.5560     9.2829     5.3825 H       
  44 H44            2.9564     8.0239     3.3061 H       
  45 H45            1.1088     7.6258     1.7298 H       
  46 H46           -2.7442     7.8196     3.4848 H       
  47 H47           -3.4062     7.9340     1.8365 H       
  48 H48           -2.0183     5.9990     1.1448 H       
  49 H49           -1.3563     5.8846     2.7931 H       
  50 H50           -3.0838     5.5677     2.5038 H       
@<TRIPOS>BOND
   1    1    2 1
   2    1    4 2
   3    1    5 am
   4    2    3 1
   5    2    6 1
   6    2    7 1
   7    3    8 1
   8    3    9 1
   9    3   10 1
  10    5   11 1
  11    5   30 1
  12    6   31 1
  13    6   32 1
  14    6   33 1
  15    7   34 1
  16   11   12 ar
  17   11   16 ar
  18   12   13 ar
  19   12   17 1
  20   13   14 ar
  21   13   35 1
  22   14   15 ar
  23   14   18 1
  24   15   16 ar
  25   15   36 1
  26   16   37 1
  27   17   38 1
  28   17   39 1
  29   17   40 1
  30   18   19 2
  31   18   20 2
  32   18   21 am
  33   21   22 1
  34   21   28 1
  35   22   23 ar
  36   22   27 ar
  37   23   24 ar
  38   23   41 1
  39   24   25 ar
  40   24   42 1
  41   25   26 ar
  42   25   43 1
  43   26   27 ar
  44   26   44 1
  45   27   45 1
  46   28   29 1
  47   28   46 1
  48   28   47 1
  49   29   48 1
  50   29   49 1
  51   29   50 1

#	End of record

