#	Name: ASD00431141
#	Creating user name:	WinNT
#	Creation time:	15. 06. 2019 18:35

#	Modifying user name:	WinNT
#	Modification time:	15. 06. 2019 18:35

#	Program:	/corina/corina34_cracker 3.40 0067  02.08.2006

@<TRIPOS>MOLECULE
ASD00431141
  50   53    0    0    0
SMALL
NO_CHARGES


@<TRIPOS>ATOM
   1 C1            -0.0224     0.8372     0.7954 C.2     
   2 N2             0.2757    -0.4771     0.8040 N.am    
   3 O3             0.8129     1.6474     0.4454 O.2     
   4 O4            -1.2474     1.2521     1.1694 O.3     
   5 C5             1.6067    -0.9291     0.3913 C.3     
   6 C6             2.5630    -0.8543     1.5832 C.3     
   7 O7             0.7918    -3.3404     0.4349 O.3     
   8 N8             0.9243    -4.3779    -0.1719 N.2     
   9 C9             1.7506    -4.2383    -1.1825 C.2     
  10 C10            2.1745    -2.8777    -1.1599 C.2     
  11 C11            1.5246    -2.3519    -0.0984 C.2     
  12 S12            3.2720    -5.0653    -3.4953 S.3     
  13 C13            3.0776    -6.7068    -3.9314 C.2     
  14 N14            2.2565    -7.2949    -3.1168 N.2     
  15 C15            1.7451    -6.5645    -2.1504 C.2     
  16 C16            2.1586    -5.2799    -2.1468 C.2     
  17 O17            3.6923    -7.3074    -4.9780 O.3     
  18 C18            3.3220    -8.5774    -5.2927 C.ar    
  19 C19            4.0438    -9.2979    -6.2351 C.ar    
  20 C20            3.6672   -10.5886    -6.5540 C.ar    
  21 C21            2.5684   -11.1640    -5.9327 C.ar    
  22 C22            1.8475   -10.4439    -4.9919 C.ar    
  23 C23            2.2270    -9.1553    -4.6684 C.ar    
  24 O24            2.1978   -12.4340    -6.2465 O.3     
  25 C25            1.0569   -12.9633    -5.5682 C.3     
  26 C26            0.7953   -14.3921    -6.0487 C.3     
  27 C27           -0.3185   -15.1782    -5.3541 C.3     
  28 C28           -0.5214   -14.6617    -6.7799 C.3     
  29 Cl29           5.4184    -8.5771    -7.0126 Cl      
  30 C30           -1.4980     2.6820     1.1356 C.3     
  31 H31           -0.3911    -1.1238     1.0834 H       
  32 H32            1.9751    -0.2895    -0.4108 H       
  33 H33            2.6224     0.1748     1.9374 H       
  34 H34            2.1946    -1.4939     2.3853 H       
  35 H35            3.5533    -1.1906     1.2762 H       
  36 H36            2.8570    -2.3821    -1.8345 H       
  37 H37            1.0526    -6.9590    -1.4215 H       
  38 H38            4.2281   -11.1492    -7.2872 H       
  39 H39            0.9917   -10.8920    -4.5090 H       
  40 H40            1.6681    -8.5967    -3.9322 H       
  41 H41            1.2431   -12.9694    -4.4943 H       
  42 H42            0.1866   -12.3429    -5.7825 H       
  43 H43            1.6751   -14.9470    -6.3745 H       
  44 H44           -0.1717   -16.2504    -5.2234 H       
  45 H45           -0.8649   -14.6774    -4.5549 H       
  46 H46           -1.2012   -13.8211    -6.9187 H       
  47 H47           -0.5079   -15.3940    -7.5872 H       
  48 H48           -0.8007     3.1889     1.8027 H       
  49 H49           -1.3615     3.0508     0.1190 H       
  50 H50           -2.5197     2.8796     1.4597 H       
@<TRIPOS>BOND
   1    1    2 am
   2    1    3 2
   3    1    4 1
   4    2    5 1
   5    2   31 1
   6    4   30 1
   7    5    6 1
   8    5   11 1
   9    5   32 1
  10    6   33 1
  11    6   34 1
  12    6   35 1
  13    7    8 1
  14    7   11 1
  15    8    9 2
  16    9   10 1
  17    9   16 1
  18   10   11 2
  19   10   36 1
  20   12   13 1
  21   12   16 1
  22   13   14 2
  23   13   17 1
  24   14   15 1
  25   15   16 2
  26   15   37 1
  27   17   18 1
  28   18   19 ar
  29   18   23 ar
  30   19   20 ar
  31   19   29 1
  32   20   21 ar
  33   20   38 1
  34   21   22 ar
  35   21   24 1
  36   22   23 ar
  37   22   39 1
  38   23   40 1
  39   24   25 1
  40   25   26 1
  41   25   41 1
  42   25   42 1
  43   26   27 1
  44   26   28 1
  45   26   43 1
  46   27   28 1
  47   27   44 1
  48   27   45 1
  49   28   46 1
  50   28   47 1
  51   30   48 1
  52   30   49 1
  53   30   50 1

#	End of record

