#	Name: ASD01810432
#	Creating user name:	WinNT
#	Creation time:	15. 06. 2019 19:24

#	Modifying user name:	WinNT
#	Modification time:	15. 06. 2019 19:24

#	Program:	/corina/corina34_cracker 3.40 0067  02.08.2006

@<TRIPOS>MOLECULE
ASD01810432
  39   42    0    0    0
SMALL
NO_CHARGES


@<TRIPOS>ATOM
   1 C1            -0.0170     1.4033     0.0098 C.2     
   2 C2             0.0021    -0.0041     0.0020 C.2     
   3 N3             1.1794     2.1121     0.0021 N.pl3   
   4 C4             2.3784     1.5232    -0.0129 C.2     
   5 C5             2.5222     0.1508    -0.0217 C.2     
   6 C6             1.3170    -0.6895    -0.0147 C.2     
   7 O7             1.3951    -1.9054    -0.0216 O.2     
   8 C8             3.8583    -0.4600    -0.0378 C.2     
   9 C9             1.1221     3.5760     0.0106 C.3     
  10 C10            1.1160     4.0703     1.4342 C.ar    
  11 O11            4.8489     0.2448    -0.0434 O.2     
  12 O12            3.9860    -1.8020    -0.0462 O.3     
  13 C13            2.3117     4.3433     2.0739 C.ar    
  14 C14            2.3120     4.7962     3.3777 C.ar    
  15 C15            1.1049     4.9783     4.0494 C.ar    
  16 C16           -0.0966     4.7018     3.4002 C.ar    
  17 C17           -0.0854     4.2547     2.0944 C.ar    
  18 C18            1.0989     5.4646     5.4514 C.ar    
  19 C19           -0.1081     5.6468     6.1232 C.ar    
  20 C20           -0.1078     6.0993     7.4271 C.ar    
  21 C21            1.0878     6.3723     8.0668 C.ar    
  22 C22            2.2889     6.1937     7.4045 C.ar    
  23 C23            2.3006     5.7353     6.1027 C.ar    
  24 N24           -1.2174    -0.5080     0.0110 N.2     
  25 S25           -2.2429     0.6634     0.0270 S.3     
  26 N26           -1.2504     1.8619     0.0294 N.2     
  27 H27            3.2640     2.1413    -0.0188 H       
  28 H28            1.9923     3.9767    -0.5095 H       
  29 H29            0.2137     3.9070    -0.4928 H       
  30 H30            4.8852    -2.1574    -0.0568 H       
  31 H31            3.2467     4.2014     1.5524 H       
  32 H32            3.2461     5.0087     3.8763 H       
  33 H33           -1.0350     4.8413     3.9162 H       
  34 H34           -1.0160     4.0401     1.5902 H       
  35 H35           -1.0423     5.4346     5.6244 H       
  36 H36           -1.0428     6.2408     7.9487 H       
  37 H37            1.0834     6.7266     9.0870 H       
  38 H38            3.2196     6.4087     7.9086 H       
  39 H39            3.2390     5.5958     5.5866 H       
@<TRIPOS>BOND
   1    1    2 1
   2    1    3 1
   3    1   26 2
   4    2   24 2
   5    2    6 1
   6    3    4 1
   7    3    9 1
   8    4    5 2
   9    4   27 1
  10    5    6 1
  11    5    8 1
  12    6    7 2
  13    8   11 2
  14    8   12 1
  15    9   10 1
  16    9   28 1
  17    9   29 1
  18   10   13 ar
  19   10   17 ar
  20   12   30 1
  21   13   14 ar
  22   13   31 1
  23   14   15 ar
  24   14   32 1
  25   15   16 ar
  26   15   18 1
  27   16   17 ar
  28   16   33 1
  29   17   34 1
  30   18   19 ar
  31   18   23 ar
  32   19   20 ar
  33   19   35 1
  34   20   21 ar
  35   20   36 1
  36   21   22 ar
  37   21   37 1
  38   22   23 ar
  39   22   38 1
  40   23   39 1
  41   24   25 1
  42   25   26 1

#	End of record

