#	Name: ASD01915790
#	Creating user name:	WinNT
#	Creation time:	15. 06. 2019 20:06

#	Modifying user name:	WinNT
#	Modification time:	15. 06. 2019 20:06

#	Program:	/corina/corina34_cracker 3.40 0067  02.08.2006

@<TRIPOS>MOLECULE
ASD01915790
  51   54    0    0    0
SMALL
NO_CHARGES


@<TRIPOS>ATOM
   1 C1             0.0000     1.4446     0.0398 C.2     
   2 N2             0.0407     0.0693    -0.0165 N.pl3   
   3 C3            -1.1917    -0.7253    -0.0829 C.3     
   4 C4            -2.3122     0.0192     0.6413 C.3     
   5 N5            -2.3913     1.4247     0.2584 N.am    
   6 C6            -1.2766     2.1735     0.0770 C.2     
   7 C7             1.2944     1.8823     0.0642 C.2     
   8 C8             2.0721     0.7170     0.0320 C.2     
   9 N9             1.2580    -0.3120    -0.0100 N.2     
  10 C10            3.5778     0.6559     0.0427 C.3     
  11 O11            4.1080     1.9820     0.0914 O.3     
  12 C12            5.4614     2.1051     0.1069 C.ar    
  13 O13           -1.3291     3.3822    -0.0479 O.2     
  14 C14            6.0440     3.3633     0.1538 C.ar    
  15 C15            6.2625     0.9728     0.0818 C.ar    
  16 C16            7.6379     1.1007     0.0976 C.ar    
  17 C17            8.2162     2.3559     0.1385 C.ar    
  18 C18            7.4200     3.4858     0.1695 C.ar    
  19 C19           -3.6416     2.0105     0.0752 C.ar    
  20 N20           -4.1838     2.0333    -1.1329 N.ar    
  21 C21           -4.3094     2.5596     1.1627 C.ar    
  22 C22           -5.5527     3.1403     0.9712 C.ar    
  23 C23           -6.0888     3.1526    -0.3059 C.ar    
  24 C24           -5.3705     2.5806    -1.3495 C.ar    
  25 N25           -5.9003     2.5881    -2.6345 N.pl3   
  26 C26           -7.1566     3.2916    -2.9048 C.3     
  27 C27           -5.2024     1.8925    -3.7187 C.3     
  28 C28           -3.6885     2.5237     2.5354 C.3     
  29 H29           -1.4707    -0.8776    -1.1255 H       
  30 H30           -1.0282    -1.6910     0.3953 H       
  31 H31           -3.2621    -0.4628     0.4100 H       
  32 H32           -2.1399    -0.0440     1.7157 H       
  33 H33            1.6423     2.9041     0.1001 H       
  34 H34            3.9126     0.0984     0.9175 H       
  35 H35            3.9277     0.1576    -0.8614 H       
  36 H36            5.4225     4.2462     0.1776 H       
  37 H37            5.8112    -0.0079     0.0501 H       
  38 H38            8.2619     0.2194     0.0784 H       
  39 H39            9.2917     2.4538     0.1509 H       
  40 H40            7.8741     4.4652     0.2011 H       
  41 H41           -6.0926     3.5738     1.8001 H       
  42 H42           -7.0560     3.5973    -0.4880 H       
  43 H43           -6.9425     4.3234    -3.1836 H       
  44 H44           -7.6820     2.7963    -3.7213 H       
  45 H45           -7.7799     3.2787    -2.0107 H       
  46 H46           -4.2944     1.4318    -3.3295 H       
  47 H47           -5.8520     1.1216    -4.1332 H       
  48 H48           -4.9416     2.6064    -4.4999 H       
  49 H49           -3.0085     3.3679     2.6488 H       
  50 H50           -4.4724     2.5845     3.2904 H       
  51 H51           -3.1357     1.5925     2.6598 H       
@<TRIPOS>BOND
   1    1    2 1
   2    1    7 2
   3    1    6 1
   4    2    3 1
   5    2    9 1
   6    3    4 1
   7    3   29 1
   8    3   30 1
   9    4    5 1
  10    4   31 1
  11    4   32 1
  12    5    6 am
  13    5   19 1
  14    6   13 2
  15    7    8 1
  16    7   33 1
  17    8    9 2
  18    8   10 1
  19   10   11 1
  20   10   34 1
  21   10   35 1
  22   11   12 1
  23   12   14 ar
  24   12   15 ar
  25   14   18 ar
  26   14   36 1
  27   15   16 ar
  28   15   37 1
  29   16   17 ar
  30   16   38 1
  31   17   18 ar
  32   17   39 1
  33   18   40 1
  34   19   21 ar
  35   19   20 ar
  36   20   24 ar
  37   21   22 ar
  38   21   28 1
  39   22   23 ar
  40   22   41 1
  41   23   24 ar
  42   23   42 1
  43   24   25 1
  44   25   26 1
  45   25   27 1
  46   26   43 1
  47   26   44 1
  48   26   45 1
  49   27   46 1
  50   27   47 1
  51   27   48 1
  52   28   49 1
  53   28   50 1
  54   28   51 1

#	End of record

