#	Name: ASD01917105
#	Creating user name:	WinNT
#	Creation time:	15. 06. 2019 20:08

#	Modifying user name:	WinNT
#	Modification time:	15. 06. 2019 20:08

#	Program:	/corina/corina34_cracker 3.40 0067  02.08.2006

@<TRIPOS>MOLECULE
ASD01917105
  30   31    0    0    0
SMALL
NO_CHARGES


@<TRIPOS>ATOM
   1 C1            -0.0184     1.5028     0.0103 C.3     
   2 C2             0.0021    -0.0041     0.0020 C.2     
   3 N3             0.0221    -0.7751     1.0570 N.2     
   4 C4             0.0362    -2.0604     0.6790 C.2     
   5 N5             0.0250    -2.1135    -0.6349 N.2     
   6 N6            -0.0030    -0.7860    -1.0925 N.pl3   
   7 C7            -0.0239    -0.3403    -2.4879 C.3     
   8 C8            -1.4516    -0.2136    -2.9534 C.2     
   9 O9            -1.7156     0.1834    -4.2082 O.3     
  10 O10           -2.3586    -0.4694    -2.1972 O.2     
  11 C11            0.0611    -3.2302     1.5917 C.ar    
  12 C12            0.0745    -4.5224     1.0710 C.ar    
  13 C13            0.0976    -5.6074     1.9234 C.ar    
  14 C14            0.1076    -5.4132     3.2949 C.ar    
  15 C15            0.0939    -4.1297     3.8171 C.ar    
  16 C16            0.0770    -3.0393     2.9721 C.ar    
  17 F17            0.1302    -6.4781     4.1259 F       
  18 C18            0.1044    -3.9245     5.3100 C.3     
  19 H19            1.0042     1.8801     0.0026 H       
  20 H20           -0.5455     1.8639    -0.8728 H       
  21 H21           -0.5286     1.8543     0.9071 H       
  22 H22            0.4715     0.6273    -2.5676 H       
  23 H23            0.4978    -1.0679    -3.1095 H       
  24 H24           -2.6466     0.2498    -4.4609 H       
  25 H25            0.0663    -4.6747     0.0018 H       
  26 H26            0.1076    -6.6094     1.5206 H       
  27 H27            0.0664    -2.0393     3.3798 H       
  28 H28            1.1344    -3.8604     5.6607 H       
  29 H29           -0.4206    -3.0008     5.5535 H       
  30 H30           -0.3932    -4.7640     5.7956 H       
@<TRIPOS>BOND
   1    1    2 1
   2    1   19 1
   3    1   20 1
   4    1   21 1
   5    2    3 2
   6    2    6 1
   7    3    4 1
   8    4    5 2
   9    4   11 1
  10    5    6 1
  11    6    7 1
  12    7    8 1
  13    7   22 1
  14    7   23 1
  15    8    9 1
  16    8   10 2
  17    9   24 1
  18   11   12 ar
  19   11   16 ar
  20   12   13 ar
  21   12   25 1
  22   13   14 ar
  23   13   26 1
  24   14   15 ar
  25   14   17 1
  26   15   16 ar
  27   15   18 1
  28   16   27 1
  29   18   28 1
  30   18   29 1
  31   18   30 1

#	End of record

