#	Name: ASD04490017
#	Creating user name:	WinNT
#	Creation time:	15. 06. 2019 20:49

#	Modifying user name:	WinNT
#	Modification time:	15. 06. 2019 20:49

#	Program:	/corina/corina34_cracker 3.40 0067  02.08.2006

@<TRIPOS>MOLECULE
ASD04490017
  35   36    0    0    0
SMALL
NO_CHARGES


@<TRIPOS>ATOM
   1 C1            -0.0169     1.3916     0.0097 C.ar    
   2 C2             0.0021    -0.0041     0.0020 C.ar    
   3 C3            -1.1823    -0.7130     0.0095 C.ar    
   4 C4            -2.3966    -0.0268     0.0248 C.ar    
   5 C5            -2.4163     1.3775     0.0325 C.ar    
   6 C6            -1.2164     2.0774     0.0306 C.ar    
   7 C7            -3.8058    -0.4393     0.0360 C.2     
   8 C8            -4.5258     0.6903     0.0490 C.2     
   9 O9            -3.7103     1.7597     0.0470 O.3     
  10 C10           -6.0315     0.7536     0.0632 C.3     
  11 C11           -4.3356    -1.8501     0.0327 C.3     
  12 C12           -4.5009    -2.3362     1.4740 C.3     
  13 O13            1.1901    -0.6669    -0.0133 O.3     
  14 O14            1.1548     2.0821     0.0022 O.3     
  15 C15            1.0673     3.5084     0.0107 C.3     
  16 C16           -5.0308    -3.7470     1.4707 C.2     
  17 O17           -5.2555    -4.3822     2.6316 O.3     
  18 O18           -5.2534    -4.3063     0.4230 O.2     
  19 Na19          -5.9552    -6.2420     2.5231 Du      
  20 S20            1.7445    -0.9760     1.3700 S.o2    
  21 O21            3.1407    -1.3423     1.1901 O.co2   
  22 O22            1.5954     0.2351     2.1618 O.co2   
  23 O23            0.9555    -2.0764     1.9018 O.co2   
  24 H24           -1.1689    -1.7929     0.0032 H       
  25 H25           -1.2211     3.1574     0.0365 H       
  26 H26           -6.3850     0.7632     1.0943 H       
  27 H27           -6.3618     1.6610    -0.4425 H       
  28 H28           -6.4366    -0.1174    -0.4518 H       
  29 H29           -5.3015    -1.8743    -0.4719 H       
  30 H30           -3.6353    -2.5000    -0.4919 H       
  31 H31           -3.5351    -2.3120     1.9786 H       
  32 H32           -5.2013    -1.6863     1.9985 H       
  33 H33            0.5238     3.8444    -0.8723 H       
  34 H34            0.5408     3.8348     0.9075 H       
  35 H35            2.0708     3.9340     0.0034 H       
@<TRIPOS>BOND
   1    1    2 ar
   2    1   14 1
   3    1    6 ar
   4    2    3 ar
   5    2   13 1
   6    3    4 ar
   7    3   24 1
   8    4    5 ar
   9    4    7 1
  10    5    6 ar
  11    5    9 1
  12    6   25 1
  13    7    8 2
  14    7   11 1
  15    8    9 1
  16    8   10 1
  17   10   26 1
  18   10   27 1
  19   10   28 1
  20   11   12 1
  21   11   29 1
  22   11   30 1
  23   12   16 1
  24   12   31 1
  25   12   32 1
  26   13   20 1
  27   14   15 1
  28   15   33 1
  29   15   34 1
  30   15   35 1
  31   16   17 1
  32   16   18 2
  33   17   19 1
  34   20   21 ar
  35   20   22 ar
  36   20   23 ar

#	End of record

