#	Name: ASD01870303
#	Creating user name:	WinNT
#	Creation time:	15. 06. 2019 19:39

#	Modifying user name:	WinNT
#	Modification time:	15. 06. 2019 19:39

#	Program:	/corina/corina34_cracker 3.40 0067  02.08.2006

@<TRIPOS>MOLECULE
ASD01870303
  31   33    0    0    0
SMALL
NO_CHARGES


@<TRIPOS>ATOM
   1 N1            -0.0159     1.3221     0.0093 N.2     
   2 C2             0.0021    -0.0041     0.0020 C.2     
   3 C3             1.2263    -0.5636    -0.0127 C.2     
   4 S4             2.4229     0.7300    -0.0172 S.3     
   5 C5             1.1308     1.9264     0.0016 C.2     
   6 N6             1.3122     3.3029     0.0064 N.am    
   7 C7             2.5573     3.8186    -0.0027 C.2     
   8 C8             2.7502     5.2827     0.0024 C.ar    
   9 O9             3.5217     3.0784    -0.0150 O.2     
  10 C10            1.6441     6.1353     0.0224 C.ar    
  11 C11            4.0395     5.8198    -0.0069 C.ar    
  12 C12            4.2138     7.1871    -0.0017 C.ar    
  13 C13            3.1121     8.0289     0.0133 C.ar    
  14 C14            1.8299     7.5010     0.0275 C.ar    
  15 F15            3.2885     9.3683     0.0188 F       
  16 C16           -1.2389    -0.8134     0.0100 C.ar    
  17 C17           -2.4798    -0.1770     0.0252 C.ar    
  18 C18           -3.6293    -0.9461     0.0325 C.ar    
  19 C19           -3.5021    -2.3288     0.0243 C.ar    
  20 C20           -2.2411    -2.8938     0.0093 C.ar    
  21 N21           -1.1610    -2.1384    -0.0029 N.ar    
  22 H22            1.4385    -1.6225    -0.0198 H       
  23 H23            0.5427     3.8934     0.0162 H       
  24 H24            0.6451     5.7252     0.0334 H       
  25 H25            4.8983     5.1650    -0.0179 H       
  26 H26            5.2102     7.6035    -0.0089 H       
  27 H27            0.9754     8.1612     0.0429 H       
  28 H28           -2.5422     0.9012     0.0316 H       
  29 H29           -4.6042    -0.4816     0.0446 H       
  30 H30           -4.3807    -2.9570     0.0301 H       
  31 H31           -2.1392    -3.9689     0.0029 H       
@<TRIPOS>BOND
   1    1    2 1
   2    1    5 2
   3    2    3 2
   4    2   16 1
   5    3    4 1
   6    3   22 1
   7    4    5 1
   8    5    6 1
   9    6    7 am
  10    6   23 1
  11    7    8 1
  12    7    9 2
  13    8   11 ar
  14    8   10 ar
  15   10   14 ar
  16   10   24 1
  17   11   12 ar
  18   11   25 1
  19   12   13 ar
  20   12   26 1
  21   13   14 ar
  22   13   15 1
  23   14   27 1
  24   16   17 ar
  25   16   21 ar
  26   17   18 ar
  27   17   28 1
  28   18   19 ar
  29   18   29 1
  30   19   20 ar
  31   19   30 1
  32   20   21 ar
  33   20   31 1

#	End of record

