#	Name: ASD00069174
#	Creating user name:	WinNT
#	Creation time:	15. 06. 2019 18:29

#	Modifying user name:	WinNT
#	Modification time:	15. 06. 2019 18:29

#	Program:	/corina/corina34_cracker 3.40 0067  02.08.2006

@<TRIPOS>MOLECULE
ASD00069174
  68   72    0    0    0
SMALL
NO_CHARGES


@<TRIPOS>ATOM
   1 C1            -0.0162     1.3058     0.0437 C.2     
   2 N2            -0.0002    -0.0077     0.0318 N.2     
   3 C3             1.2712    -0.4298     0.0344 C.2     
   4 C4             2.0845     0.6819     0.0487 C.2     
   5 N5             1.2729     1.7619     0.0545 N.pl3   
   6 C6            -1.2254     2.1497     0.0398 C.2     
   7 O7            -1.1214     3.3614     0.0515 O.2     
   8 N8            -2.4459     1.5783     0.0231 N.am    
   9 C9            -3.5930     2.3733     0.1388 C.ar    
  10 C10           -4.7618     2.0158    -0.5321 C.ar    
  11 C11           -5.8955     2.8086    -0.4131 C.ar    
  12 C12           -5.8620     3.9497     0.3699 C.ar    
  13 C13           -4.7021     4.3027     1.0345 C.ar    
  14 C14           -3.5710     3.5156     0.9257 C.ar    
  15 F15           -7.0304     2.4669    -1.0615 F       
  16 N16           -4.7921     0.8608    -1.3240 N.3     
  17 C17           -5.8047    -0.0847    -0.8371 C.3     
  18 C18           -5.7106    -1.3891    -1.6318 C.3     
  19 C19           -5.9342    -1.0932    -3.1174 C.3     
  20 C20           -4.8970    -0.0696    -3.5876 C.3     
  21 C21           -5.0146     1.1966    -2.7361 C.3     
  22 C22           -5.7811    -2.3839    -3.9246 C.3     
  23 N23           -6.1127    -2.1236    -5.3318 N.3     
  24 C24            3.4330    -3.3946     0.0199 C.ar    
  25 N25            3.0230    -2.1361     0.0285 N.ar    
  26 C26            1.7224    -1.8418     0.0242 C.ar    
  27 C27            0.7934    -2.8804     0.0103 C.ar    
  28 C28            1.2656    -4.1913     0.0016 C.ar    
  29 N29            2.5784    -4.4067     0.0067 N.ar    
  30 N30            0.3794    -5.2568    -0.0118 N.pl3   
  31 C31           -1.0644    -5.0086    -0.0168 C.3     
  32 C32           -1.8001    -6.3238    -0.0316 C.ar    
  33 C33           -2.1432    -6.9366     1.1592 C.ar    
  34 C34           -2.8183    -8.1424     1.1469 C.ar    
  35 C35           -3.1510    -8.7367    -0.0586 C.ar    
  36 C36           -2.8069    -8.1220    -1.2506 C.ar    
  37 C37           -2.1365    -6.9136    -1.2358 C.ar    
  38 F38           -3.8106    -9.9157    -0.0718 F       
  39 N39            4.7913    -3.6603     0.0189 N.pl3   
  40 H40            3.1645     0.6888     0.0546 H       
  41 H41            1.5531     2.6905     0.0644 H       
  42 H42           -2.5298     0.6163    -0.0690 H       
  43 H43           -6.7442     4.5659     0.4616 H       
  44 H44           -4.6810     5.1941     1.6439 H       
  45 H45           -2.6684     3.7922     1.4503 H       
  46 H46           -5.6318    -0.2898     0.2194 H       
  47 H47           -6.7969     0.3479    -0.9652 H       
  48 H48           -4.7232    -1.8294    -1.4931 H       
  49 H49           -6.4726    -2.0849    -1.2807 H       
  50 H50           -6.9361    -0.6890    -3.2616 H       
  51 H51           -3.8968    -0.4891    -3.4796 H       
  52 H52           -5.0777     0.1773    -4.6338 H       
  53 H53           -6.0106     1.6232    -2.8554 H       
  54 H54           -4.2679     1.9221    -3.0590 H       
  55 H55           -4.7525    -2.7373    -3.8530 H       
  56 H56           -6.4546    -3.1431    -3.5270 H       
  57 H57           -6.0191    -2.9614    -5.8862 H       
  58 H58           -7.0393    -1.7340    -5.4189 H       
  59 H59           -0.2668    -2.6743     0.0068 H       
  60 H60            0.7151    -6.1668    -0.0178 H       
  61 H61           -1.3399    -4.4482     0.8766 H       
  62 H62           -1.3311    -4.4332    -0.9033 H       
  63 H63           -1.8833    -6.4731     2.0994 H       
  64 H64           -3.0859    -8.6212     2.0772 H       
  65 H65           -3.0659    -8.5846    -2.1915 H       
  66 H66           -1.8715    -6.4318    -2.1654 H       
  67 H67            5.4285    -2.9290     0.0245 H       
  68 H68            5.1060    -4.5778     0.0127 H       
@<TRIPOS>BOND
   1    1    2 2
   2    1    5 1
   3    1    6 1
   4    2    3 1
   5    3    4 2
   6    3   26 1
   7    4    5 1
   8    4   40 1
   9    5   41 1
  10    6    7 2
  11    6    8 am
  12    8    9 1
  13    8   42 1
  14    9   10 ar
  15    9   14 ar
  16   10   11 ar
  17   10   16 1
  18   11   12 ar
  19   11   15 1
  20   12   13 ar
  21   12   43 1
  22   13   14 ar
  23   13   44 1
  24   14   45 1
  25   16   17 1
  26   16   21 1
  27   17   18 1
  28   17   46 1
  29   17   47 1
  30   18   19 1
  31   18   48 1
  32   18   49 1
  33   19   20 1
  34   19   22 1
  35   19   50 1
  36   20   21 1
  37   20   51 1
  38   20   52 1
  39   21   53 1
  40   21   54 1
  41   22   23 1
  42   22   55 1
  43   22   56 1
  44   23   57 1
  45   23   58 1
  46   24   25 ar
  47   24   29 ar
  48   24   39 1
  49   25   26 ar
  50   26   27 ar
  51   27   28 ar
  52   27   59 1
  53   28   29 ar
  54   28   30 1
  55   30   31 1
  56   30   60 1
  57   31   32 1
  58   31   61 1
  59   31   62 1
  60   32   33 ar
  61   32   37 ar
  62   33   34 ar
  63   33   63 1
  64   34   35 ar
  65   34   64 1
  66   35   36 ar
  67   35   38 1
  68   36   37 ar
  69   36   65 1
  70   37   66 1
  71   39   67 1
  72   39   68 1

#	End of record

