#	Name: ASD01870513
#	Creating user name:	WinNT
#	Creation time:	15. 06. 2019 19:39

#	Modifying user name:	WinNT
#	Modification time:	15. 06. 2019 19:39

#	Program:	/corina/corina34_cracker 3.40 0067  02.08.2006

@<TRIPOS>MOLECULE
ASD01870513
  40   43    0    0    0
SMALL
NO_CHARGES


@<TRIPOS>ATOM
   1 C1            -0.0557     1.4173     0.0665 C.ar    
   2 C2            -0.0445     0.0275     0.0766 C.ar    
   3 C3             1.1517    -0.6622     0.0771 C.ar    
   4 C4             2.3587     0.0211     0.0681 C.ar    
   5 C5             2.3654     1.4059     0.0580 C.ar    
   6 C6             1.1454     2.1136     0.0569 C.ar    
   7 C7             3.4280     2.4332     0.0464 C.2     
   8 N8             2.8491     3.6476     0.0393 N.am    
   9 C9             1.5079     3.5445     0.0459 C.2     
  10 O10            0.7256     4.4738     0.0417 O.2     
  11 O11            4.6232     2.2173     0.0442 O.2     
  12 C12            3.5518     4.8618     0.0273 C.ar    
  13 C13            2.8585     6.0647     0.0207 C.ar    
  14 C14            3.5489     7.2605     0.0089 C.ar    
  15 C15            4.9372     7.2609     0.0036 C.ar    
  16 C16            5.6323     6.0564     0.0107 C.ar    
  17 C17            4.9400     4.8600     0.0279 C.ar    
  18 N18            5.6375     8.4742    -0.0093 N.am    
  19 C19            5.1341     9.5358    -0.6695 C.2     
  20 C20            5.8020    10.8382    -0.5811 C.2     
  21 O21            4.1251     9.4136    -1.3391 O.2     
  22 C22            5.4004    11.9893    -1.1963 C.2     
  23 C23            6.3255    12.9823    -0.8377 C.2     
  24 C24            7.2395    12.4012    -0.0297 C.2     
  25 O25            6.9177    11.1105     0.1268 O.3     
  26 C26            4.1975    12.1604    -2.0877 C.3     
  27 F27            6.9833     6.0556     0.0052 F       
  28 F28           -1.2291     2.0870     0.0604 F       
  29 H29           -0.9774    -0.5165     0.0844 H       
  30 H30            1.1475    -1.7422     0.0850 H       
  31 H31            3.2904    -0.5251     0.0693 H       
  32 H32            1.7785     6.0652     0.0244 H       
  33 H33            3.0087     8.1957     0.0034 H       
  34 H34            5.4790     3.9242     0.0376 H       
  35 H35            6.4847     8.5501     0.4570 H       
  36 H36            6.3098    14.0163    -1.1493 H       
  37 H37            8.0875    12.8969     0.4193 H       
  38 H38            3.3342    12.4393    -1.4835 H       
  39 H39            4.3964    12.9427    -2.8202 H       
  40 H40            3.9918    11.2228    -2.6042 H       
@<TRIPOS>BOND
   1    1    2 ar
   2    1    6 ar
   3    1   28 1
   4    2    3 ar
   5    2   29 1
   6    3    4 ar
   7    3   30 1
   8    4    5 ar
   9    4   31 1
  10    5    7 1
  11    5    6 ar
  12    6    9 1
  13    7    8 am
  14    7   11 2
  15    8    9 am
  16    8   12 1
  17    9   10 2
  18   12   13 ar
  19   12   17 ar
  20   13   14 ar
  21   13   32 1
  22   14   15 ar
  23   14   33 1
  24   15   16 ar
  25   15   18 1
  26   16   17 ar
  27   16   27 1
  28   17   34 1
  29   18   19 am
  30   18   35 1
  31   19   20 1
  32   19   21 2
  33   20   22 2
  34   20   25 1
  35   22   23 1
  36   22   26 1
  37   23   24 2
  38   23   36 1
  39   24   25 1
  40   24   37 1
  41   26   38 1
  42   26   39 1
  43   26   40 1

#	End of record

