#	Name: ASD04370030
#	Creating user name:	WinNT
#	Creation time:	15. 06. 2019 20:49

#	Modifying user name:	WinNT
#	Modification time:	15. 06. 2019 20:49

#	Program:	/corina/corina34_cracker 3.40 0067  02.08.2006

@<TRIPOS>MOLECULE
ASD04370030
  54   54    0    0    0
SMALL
NO_CHARGES


@<TRIPOS>ATOM
   1 C1             3.2665    -0.4330    -0.7076 C.2     
   2 C2             1.9337     0.2213    -0.9655 C.3     
   3 C3             0.9276    -0.2365     0.0924 C.3     
   4 C4            -0.4556     0.3253    -0.2424 C.3     
   5 O5             3.4224    -1.1301     0.2804 O.co2   
   6 O6             4.1874    -0.2693    -1.4897 O.co2   
   7 N7            -1.4387    -0.1875     0.7212 N.4     
   8 C8            -1.1266     0.3285     2.0607 C.3     
   9 C9            -2.7844     0.2517     0.3285 C.3     
  10 C10           -1.3882    -1.6556     0.7380 C.3     
  11 N11            1.3472     0.2508     1.4087 N.am    
  12 C12            1.5401     1.5696     1.6089 C.2     
  13 C13            2.0815     2.0604     2.9269 C.3     
  14 C14            2.2039     3.5851     2.8920 C.3     
  15 C15            2.7536     4.0834     4.2300 C.3     
  16 C16            2.8760     5.6081     4.1952 C.3     
  17 C17            3.4257     6.1063     5.5332 C.3     
  18 O18            1.2779     2.3614     0.7284 O.2     
  19 C19            3.5462     7.6081     5.4989 C.ar    
  20 C20            2.4854     8.3961     5.9047 C.ar    
  21 C21            2.5960     9.7737     5.8731 C.ar    
  22 C22            3.7675    10.3632     5.4362 C.ar    
  23 C23            4.8286     9.5752     5.0313 C.ar    
  24 C24            4.7196     8.1976     5.0669 C.ar    
  25 H25            2.0451     1.3045    -0.9162 H       
  26 H26            1.5750    -0.0624    -1.9549 H       
  27 H27            0.8841    -1.3256     0.1051 H       
  28 H28           -0.4283     1.4136    -0.1892 H       
  29 H29           -0.7388     0.0176    -1.2490 H       
  30 H30           -0.9681     1.4056     2.0073 H       
  31 H31           -1.9569     0.1163     2.7344 H       
  32 H32           -0.2232    -0.1536     2.4344 H       
  33 H33           -3.0159    -0.1312    -0.6654 H       
  34 H34           -3.5138    -0.1288     1.0435 H       
  35 H35           -2.8218     1.3410     0.3161 H       
  36 H36           -0.3897    -1.9815     1.0294 H       
  37 H37           -2.1177    -2.0361     1.4530 H       
  38 H38           -1.6198    -2.0385    -0.2559 H       
  39 H39            1.4862    -0.3756     2.1361 H       
  40 H40            1.4040     1.7685     3.7293 H       
  41 H41            3.0634     1.6210     3.1025 H       
  42 H42            2.8814     3.8769     2.0895 H       
  43 H43            1.2220     4.0245     2.7163 H       
  44 H44            2.0761     3.7915     5.0325 H       
  45 H45            3.7355     3.6440     4.4057 H       
  46 H46            3.5535     5.8999     3.3927 H       
  47 H47            1.8940     6.0475     4.0195 H       
  48 H48            2.7481     5.8145     6.3357 H       
  49 H49            4.4076     5.6669     5.7089 H       
  50 H50            1.5701     7.9355     6.2460 H       
  51 H51            1.7670    10.3893     6.1894 H       
  52 H52            3.8536    11.4395     5.4109 H       
  53 H53            5.7438    10.0358     4.6896 H       
  54 H54            5.5499     7.5819     4.7541 H       
@<TRIPOS>BOND
   1    1    2 1
   2    1    5 ar
   3    1    6 ar
   4    2    3 1
   5    2   25 1
   6    2   26 1
   7    3    4 1
   8    3   11 1
   9    3   27 1
  10    4    7 1
  11    4   28 1
  12    4   29 1
  13    7    8 1
  14    7    9 1
  15    7   10 1
  16    8   30 1
  17    8   31 1
  18    8   32 1
  19    9   33 1
  20    9   34 1
  21    9   35 1
  22   10   36 1
  23   10   37 1
  24   10   38 1
  25   11   12 am
  26   11   39 1
  27   12   13 1
  28   12   18 2
  29   13   14 1
  30   13   40 1
  31   13   41 1
  32   14   15 1
  33   14   42 1
  34   14   43 1
  35   15   16 1
  36   15   44 1
  37   15   45 1
  38   16   17 1
  39   16   46 1
  40   16   47 1
  41   17   19 1
  42   17   48 1
  43   17   49 1
  44   19   20 ar
  45   19   24 ar
  46   20   21 ar
  47   20   50 1
  48   21   22 ar
  49   21   51 1
  50   22   23 ar
  51   22   52 1
  52   23   24 ar
  53   23   53 1
  54   24   54 1

#	End of record

