#	Name: ASD00451026
#	Creating user name:	WinNT
#	Creation time:	15. 06. 2019 18:36

#	Modifying user name:	WinNT
#	Modification time:	15. 06. 2019 18:36

#	Program:	/corina/corina34_cracker 3.40 0067  02.08.2006

@<TRIPOS>MOLECULE
ASD00451026
  70   75    0    0    0
SMALL
NO_CHARGES


@<TRIPOS>ATOM
   1 C1            -0.1171     1.5345     0.0362 C.ar    
   2 C2            -0.1950     0.1503     0.0218 C.ar    
   3 N3             1.1299     2.1671    -0.0069 N.am    
   4 C4            -1.2902     2.2980     0.0881 C.ar    
   5 C5            -1.4261    -0.4753     0.0643 C.ar    
   6 C6             2.1853     1.5392    -0.5621 C.2     
   7 C7            -2.5286     1.6599     0.1249 C.ar    
   8 C8            -2.5921     0.2766     0.1212 C.ar    
   9 O9             2.0720     0.3958    -0.9601 O.2     
  10 N10            3.3662     2.1785    -0.6763 N.am    
  11 O11           -3.7998    -0.3469     0.1571 O.3     
  12 C12            4.4937     1.4889    -1.1360 C.ar    
  13 C13           -4.1897    -0.9144     1.3276 C.ar    
  14 C14            5.5227     2.1780    -1.7638 C.ar    
  15 C15            4.5884     0.1144    -0.9600 C.ar    
  16 C16           -5.4532    -1.4848     1.4608 C.ar    
  17 C17           -3.3350    -0.9477     2.4271 C.ar    
  18 C18            6.6345     1.4944    -2.2161 C.ar    
  19 C19            5.7025    -0.5632    -1.4144 C.ar    
  20 N20           -6.5370    -1.6350     0.5980 N.am    
  21 C21           -5.8188    -2.0593     2.6784 C.ar    
  22 C22           -3.7671    -1.5338     3.5998 C.ar    
  23 C23            6.7234     0.1254    -2.0441 C.ar    
  24 C24           -7.5181    -2.2733     1.2644 C.2     
  25 N25           -7.1142    -2.5359     2.5212 N.am    
  26 N26           -4.9726    -2.0615     3.6974 N.ar    
  27 O27           -8.6065    -2.5617     0.8029 O.2     
  28 H28            1.2350     3.0577     0.3629 H       
  29 H29            3.4346     3.1168    -0.4398 H       
  30 H30           -6.5780    -1.3320    -0.3226 H       
  31 H31           -7.6376    -2.9879     3.2013 H       
  32 C32           -1.2150     3.7765     0.1043 C.ar    
  33 C33            5.8061    -2.0545    -1.2239 C.3     
  34 C34           -1.6442     4.4864     1.2118 C.ar    
  35 C35           -1.5762     5.8751     1.2345 C.ar    
  36 C36           -1.0875     6.5739     0.1726 C.ar    
  37 C37           -0.6408     5.8931    -0.9733 C.ar    
  38 C38           -0.6976     4.4787    -1.0109 C.ar    
  39 C39           -0.1325     6.5910    -2.0827 C.ar    
  40 C40            0.2915     5.9004    -3.1764 C.ar    
  41 C41            0.2291     4.5091    -3.2140 C.ar    
  42 C42           -0.2518     3.8008    -2.1546 C.ar    
  43 C43            4.6391    -2.7418    -1.9356 C.3     
  44 C44            7.1274    -2.5532    -1.8124 C.3     
  45 C45            5.7570    -2.3825     0.2697 C.3     
  46 H46            0.7083    -0.4400    -0.0231 H       
  47 H47           -1.4819    -1.5538     0.0529 H       
  48 H48           -3.4367     2.2431     0.1650 H       
  49 H49            5.4537     3.2473    -1.8988 H       
  50 H50            3.7917    -0.4237    -0.4681 H       
  51 H51           -2.3454    -0.5200     2.3627 H       
  52 H52            7.4351     2.0297    -2.7048 H       
  53 H53           -3.1060    -1.5611     4.4535 H       
  54 H54            7.5936    -0.4069    -2.3989 H       
  55 H55           -2.0364     3.9565     2.0673 H       
  56 H56           -1.9172     6.4088     2.1093 H       
  57 H57           -1.0434     7.6523     0.2107 H       
  58 H58           -0.0789     7.6695    -2.0674 H       
  59 H59            0.6817     6.4388    -4.0274 H       
  60 H60            0.5715     3.9845    -4.0938 H       
  61 H61           -0.2943     2.7224    -2.1972 H       
  62 H62            4.6741    -2.5081    -2.9997 H       
  63 H63            4.7141    -3.8205    -1.7979 H       
  64 H64            3.6978    -2.3865    -1.5164 H       
  65 H65            7.9588    -2.0636    -1.3054 H       
  66 H66            7.2024    -3.6319    -1.6747 H       
  67 H67            7.1624    -2.3196    -2.8765 H       
  68 H68            4.8157    -2.0272     0.6890 H       
  69 H69            5.8320    -3.4611     0.4075 H       
  70 H70            6.5884    -1.8928     0.7767 H       
@<TRIPOS>BOND
   1    1    2 ar
   2    1    3 1
   3    1    4 ar
   4    2    5 ar
   5    2   46 1
   6    3   28 1
   7    3    6 am
   8    4   32 1
   9    4    7 ar
  10    5    8 ar
  11    5   47 1
  12    6    9 2
  13    6   10 am
  14    7    8 ar
  15    7   48 1
  16    8   11 1
  17   10   12 1
  18   10   29 1
  19   11   13 1
  20   12   14 ar
  21   12   15 ar
  22   13   16 ar
  23   13   17 ar
  24   14   18 ar
  25   14   49 1
  26   15   19 ar
  27   15   50 1
  28   16   20 1
  29   16   21 ar
  30   17   22 ar
  31   17   51 1
  32   18   23 ar
  33   18   52 1
  34   19   23 ar
  35   19   33 1
  36   20   30 1
  37   20   24 am
  38   21   26 ar
  39   21   25 1
  40   22   26 ar
  41   22   53 1
  42   23   54 1
  43   24   25 am
  44   24   27 2
  45   25   31 1
  46   32   34 ar
  47   32   38 ar
  48   33   43 1
  49   33   44 1
  50   33   45 1
  51   34   35 ar
  52   34   55 1
  53   35   36 ar
  54   35   56 1
  55   36   37 ar
  56   36   57 1
  57   37   38 ar
  58   37   39 ar
  59   38   42 ar
  60   39   40 ar
  61   39   58 1
  62   40   41 ar
  63   40   59 1
  64   41   42 ar
  65   41   60 1
  66   42   61 1
  67   43   62 1
  68   43   63 1
  69   43   64 1
  70   44   65 1
  71   44   66 1
  72   44   67 1
  73   45   68 1
  74   45   69 1
  75   45   70 1

#	End of record

