#	Name: ASD03090703
#	Creating user name:	WinNT
#	Creation time:	15. 06. 2019 20:29

#	Modifying user name:	WinNT
#	Modification time:	15. 06. 2019 20:29

#	Program:	/corina/corina34_cracker 3.40 0067  02.08.2006

@<TRIPOS>MOLECULE
ASD03090703
  34   35    0    0    0
SMALL
NO_CHARGES


@<TRIPOS>ATOM
   1 N1            -0.0162     1.3436     0.0094 N.am    
   2 C2            -0.0612     0.1290     0.5920 C.2     
   3 O3             0.9569    -0.3759     1.0244 O.2     
   4 N4            -1.2347    -0.5257     0.6953 N.am    
   5 O5            -0.2491    -2.4577     1.8164 O.3     
   6 N6            -0.6045    -3.5212     2.2684 N.2     
   7 C7            -1.8866    -3.7056     2.1224 C.2     
   8 C8            -2.3853    -2.5587     1.4727 C.2     
   9 C9            -1.2810    -1.7756     1.2948 C.2     
  10 C10           -2.6799    -4.9091     2.5620 C.3     
  11 F11           -1.8479    -5.7828     3.2702 F       
  12 F12           -3.7333    -4.4978     3.3856 F       
  13 F13           -3.1950    -5.5640     1.4381 F       
  14 C14            1.1764     3.4545    -0.1185 C.ar    
  15 C15            1.1879     2.0647    -0.0180 C.ar    
  16 C16            2.4075     1.4020     0.0553 C.ar    
  17 C17            3.5714     2.1542     0.0253 C.ar    
  18 C18            3.4848     3.5345    -0.0761 C.ar    
  19 N19            2.3085     4.1374    -0.1442 N.ar    
  20 O20            4.6210     4.2769    -0.1055 O.3     
  21 C21            4.4677     5.6937    -0.2110 C.3     
  22 O22           -0.0080     4.1132    -0.1965 O.3     
  23 C23            0.0472     5.5375    -0.2978 C.3     
  24 H24           -0.8149     1.7176    -0.3944 H       
  25 H25           -2.0469    -0.1229     0.3504 H       
  26 H26           -3.4041    -2.3482     1.1826 H       
  27 H27            2.4474     0.3256     0.1342 H       
  28 H28            4.5354     1.6704     0.0807 H       
  29 H29            5.4502     6.1655    -0.2242 H       
  30 H30            3.9368     5.9342    -1.1321 H       
  31 H31            3.8991     6.0622     0.6428 H       
  32 H32           -0.9653     5.9374    -0.3526 H       
  33 H33            0.5517     5.9448     0.5784 H       
  34 H34            0.5973     5.8168    -1.1964 H       
@<TRIPOS>BOND
   1    1    2 am
   2    1   15 1
   3    1   24 1
   4    2    3 2
   5    2    4 am
   6    4    9 1
   7    4   25 1
   8    5    6 1
   9    5    9 1
  10    6    7 2
  11    7    8 1
  12    7   10 1
  13    8    9 2
  14    8   26 1
  15   10   11 1
  16   10   12 1
  17   10   13 1
  18   14   15 ar
  19   14   19 ar
  20   14   22 1
  21   15   16 ar
  22   16   17 ar
  23   16   27 1
  24   17   18 ar
  25   17   28 1
  26   18   19 ar
  27   18   20 1
  28   20   21 1
  29   21   29 1
  30   21   30 1
  31   21   31 1
  32   22   23 1
  33   23   32 1
  34   23   33 1
  35   23   34 1

#	End of record

