#	Name: ASD01883670
#	Creating user name:	WinNT
#	Creation time:	15. 06. 2019 19:46

#	Modifying user name:	WinNT
#	Modification time:	15. 06. 2019 19:46

#	Program:	/corina/corina34_cracker 3.40 0067  02.08.2006

@<TRIPOS>MOLECULE
ASD01883670
  56   59    0    0    0
SMALL
NO_CHARGES


@<TRIPOS>ATOM
   1 C1            -0.4013     0.7210    -1.0993 C.2     
   2 C2             0.0021    -0.0041     0.0020 C.2     
   3 C3            -0.8246    -0.0444     1.1450 C.2     
   4 C4            -1.9964     0.6199     1.1579 C.2     
   5 N5            -2.4052     1.3408     0.0726 N.pl3   
   6 C6            -1.6277     1.4095    -1.0545 C.2     
   7 C7            -3.5281     2.0914    -0.1700 C.2     
   8 C8            -3.4142     2.5870    -1.4201 C.2     
   9 N9            -2.2585     2.1668    -1.9431 N.2     
  10 Cl10           0.5942     0.7893    -2.5199 Cl      
  11 N11            1.2139    -0.6906    -0.0137 N.pl3   
  12 C12            1.2455    -2.1560     0.0884 C.3     
  13 C13            2.1774    -2.5502     1.2386 C.3     
  14 C14            3.5485    -1.9054     1.0229 C.3     
  15 C15            3.4028    -0.3820     1.0197 C.3     
  16 C16            2.4846     0.0364    -0.1387 C.3     
  17 C17           -4.6743     2.3194     0.7815 C.3     
  18 C18           -5.7838     1.3054     0.4959 C.3     
  19 F19           -5.2863     0.0091     0.6673 F       
  20 F20           -6.8478     1.5172     1.3792 F       
  21 F21           -6.2318     1.4628    -0.8201 F       
  22 C22            4.4780    -2.3186     2.1348 C.ar    
  23 C23            5.6420    -3.0050     1.8434 C.ar    
  24 C24            6.4947    -3.3840     2.8632 C.ar    
  25 C25            6.1836    -3.0762     4.1745 C.ar    
  26 C26            5.0201    -2.3889     4.4658 C.ar    
  27 C27            4.1696    -2.0061     3.4455 C.ar    
  28 C28            7.1127    -3.4902     5.2864 C.3     
  29 C29            6.3040    -3.7363     6.5617 C.3     
  30 O30            7.7943    -4.6903     4.9157 O.3     
  31 C31            8.1349    -2.3798     5.5370 C.3     
  32 H32           -0.5169    -0.6100     2.0121 H       
  33 H33           -2.6210     0.5815     2.0381 H       
  34 H34           -4.1358     3.2204    -1.9145 H       
  35 H35            0.2412    -2.5302     0.2871 H       
  36 H36            1.6175    -2.5793    -0.8447 H       
  37 H37            1.7568    -2.2036     2.1826 H       
  38 H38            2.2852    -3.6345     1.2641 H       
  39 H39            3.9575    -2.2331     0.0672 H       
  40 H40            2.9708    -0.0558     1.9657 H       
  41 H41            4.3829     0.0769     0.8894 H       
  42 H42            2.9599    -0.2085    -1.0885 H       
  43 H43            2.2971     1.1089    -0.0873 H       
  44 H44           -4.3252     2.1969     1.8068 H       
  45 H45           -5.0619     3.3294     0.6480 H       
  46 H46            5.8850    -3.2455     0.8189 H       
  47 H47            7.4037    -3.9210     2.6356 H       
  48 H48            4.7770    -2.1487     5.4903 H       
  49 H49            3.2606    -1.4692     3.6731 H       
  50 H50            5.5757    -4.5274     6.3832 H       
  51 H51            6.9760    -4.0357     7.3660 H       
  52 H52            5.7841    -2.8209     6.8445 H       
  53 H53            7.2069    -5.4383     4.7412 H       
  54 H54            7.6150    -1.4644     5.8198 H       
  55 H55            8.8069    -2.6792     6.3413 H       
  56 H56            8.7111    -2.2045     4.6285 H       
@<TRIPOS>BOND
   1    1    2 2
   2    1   10 1
   3    1    6 1
   4    2    3 1
   5    2   11 1
   6    3    4 2
   7    3   32 1
   8    4    5 1
   9    4   33 1
  10    5    6 1
  11    5    7 1
  12    6    9 2
  13    7    8 2
  14    7   17 1
  15    8    9 1
  16    8   34 1
  17   11   12 1
  18   11   16 1
  19   12   13 1
  20   12   35 1
  21   12   36 1
  22   13   14 1
  23   13   37 1
  24   13   38 1
  25   14   15 1
  26   14   22 1
  27   14   39 1
  28   15   16 1
  29   15   40 1
  30   15   41 1
  31   16   42 1
  32   16   43 1
  33   17   18 1
  34   17   44 1
  35   17   45 1
  36   18   19 1
  37   18   20 1
  38   18   21 1
  39   22   23 ar
  40   22   27 ar
  41   23   24 ar
  42   23   46 1
  43   24   25 ar
  44   24   47 1
  45   25   26 ar
  46   25   28 1
  47   26   27 ar
  48   26   48 1
  49   27   49 1
  50   28   29 1
  51   28   30 1
  52   28   31 1
  53   29   50 1
  54   29   51 1
  55   29   52 1
  56   30   53 1
  57   31   54 1
  58   31   55 1
  59   31   56 1

#	End of record

