#	Name: ASD04882531
#	Creating user name:	WinNT
#	Creation time:	15. 06. 2019 20:55

#	Modifying user name:	WinNT
#	Modification time:	15. 06. 2019 20:55

#	Program:	/corina/corina34_cracker 3.40 0067  02.08.2006

@<TRIPOS>MOLECULE
ASD04882531
  77   81    0    0    0
SMALL
NO_CHARGES


@<TRIPOS>ATOM
   1 C1            -0.0169     1.3933     0.0097 C.ar    
   2 C2             0.0021    -0.0041     0.0020 C.ar    
   3 C3            -1.1907    -0.7173     0.0101 C.ar    
   4 C4            -2.3958    -0.0500     0.0256 C.ar    
   5 C5            -2.4220     1.3471     0.0334 C.ar    
   6 C6            -1.2234     2.0668     0.0306 C.ar    
   7 N7             1.2187    -0.6833    -0.0142 N.3     
   8 C8             1.3564    -1.5453     1.1680 C.3     
   9 C9             1.3705    -1.4623    -1.2510 C.3     
  10 C10            2.7488    -2.1275    -1.2658 C.3     
  11 N11            2.8865    -2.9895    -0.0836 N.3     
  12 C12            2.7347    -2.2105     1.1532 C.3     
  13 C13           -3.7126     2.0616     0.0501 C.2     
  14 O14           -3.7345     3.2774     0.0568 O.2     
  15 N15           -4.8675     1.3668     0.0579 N.am    
  16 N16            1.1859     2.1105     0.0021 N.pl3   
  17 C17            4.1060    -3.6703    -0.0999 C.ar    
  18 C18            1.1654     3.5754     0.0101 C.3     
  19 C19            2.5789     4.0976    -0.0006 C.ar    
  20 N20            3.2376     4.2185     1.1353 N.ar    
  21 C21            5.2996    -2.9601    -0.1084 C.ar    
  22 C22            6.5038    -3.6365    -0.1240 C.ar    
  23 C23            6.5219    -5.0190    -0.1316 C.ar    
  24 C24            5.3352    -5.7294    -0.1231 C.ar    
  25 C25            4.1279    -5.0595    -0.1017 C.ar    
  26 C26            2.8353    -5.8343    -0.0920 C.3     
  27 C27           -6.1491     2.0764     0.0745 C.3     
  28 C28           -7.2939     1.0614     0.0805 C.3     
  29 C29           -8.6324     1.8024     0.0978 C.3     
  30 N30           -9.7286     0.8305     0.1036 N.am    
  31 C31          -10.2853     0.3217     1.2163 C.2     
  32 C32          -10.3642     0.2920    -1.1047 C.3     
  33 C33          -11.1225    -0.9722    -0.6430 C.3     
  34 C34          -11.3794    -0.6567     0.8500 C.3     
  35 O35           -9.9577     0.6054     2.3490 O.2     
  36 C36            3.1720     4.4391    -1.2015 C.ar    
  37 C37            4.4729     4.9181    -1.2004 C.ar    
  38 C38            5.1316     5.0363     0.0141 C.ar    
  39 C39            4.4760     4.6704     1.1742 C.ar    
  40 H40           -1.1728    -1.7971     0.0037 H       
  41 H41           -3.3210    -0.6071     0.0315 H       
  42 H42           -1.2405     3.1466     0.0366 H       
  43 H43            1.2527    -0.9435     2.0709 H       
  44 H44            0.5822    -2.3124     1.1509 H       
  45 H45            0.5964    -2.2284    -1.2956 H       
  46 H46            1.2771    -0.8000    -2.1117 H       
  47 H47            2.8525    -2.7293    -2.1687 H       
  48 H48            3.5230    -1.3605    -1.2487 H       
  49 H49            3.5088    -1.4444     1.1978 H       
  50 H50            2.8281    -2.8728     2.0139 H       
  51 H51           -4.8501     0.3970     0.0525 H       
  52 H52            2.0326     1.6374    -0.0086 H       
  53 H53            0.6380     3.9362    -0.8729 H       
  54 H54            0.6550     3.9267     0.9069 H       
  55 H55            5.2861    -1.8802    -0.1032 H       
  56 H56            7.4322    -3.0849    -0.1306 H       
  57 H57            7.4648    -5.5454    -0.1445 H       
  58 H58            5.3528    -6.8092    -0.1294 H       
  59 H59            2.5369    -6.0302     0.9378 H       
  60 H60            2.0597    -5.2533    -0.5909 H       
  61 H61            2.9746    -6.7799    -0.6161 H       
  62 H62           -6.2092     2.6971     0.9685 H       
  63 H63           -6.2270     2.7067    -0.8114 H       
  64 H64           -7.2338     0.4406    -0.8135 H       
  65 H65           -7.2161     0.4311     0.9664 H       
  66 H66           -8.6925     2.4231     0.9918 H       
  67 H67           -8.7103     2.4327    -0.7880 H       
  68 H68          -11.0614     1.0194    -1.5203 H       
  69 H69           -9.6073     0.0290    -1.8437 H       
  70 H70          -12.0623    -1.0827    -1.1840 H       
  71 H71          -10.5027    -1.8617    -0.7552 H       
  72 H72          -11.2981    -1.5626     1.4507 H       
  73 H73          -12.3599    -0.1985     0.9798 H       
  74 H74            2.6289     4.3336    -2.1291 H       
  75 H75            4.9619     5.1923    -2.1235 H       
  76 H76            6.1458     5.4056     0.0524 H       
  77 H77            4.9821     4.7595     2.1241 H       
@<TRIPOS>BOND
   1    1    2 ar
   2    1   16 1
   3    1    6 ar
   4    2    3 ar
   5    2    7 1
   6    3    4 ar
   7    3   40 1
   8    4    5 ar
   9    4   41 1
  10    5    6 ar
  11    5   13 1
  12    6   42 1
  13    7    8 1
  14    7    9 1
  15    8   12 1
  16    8   43 1
  17    8   44 1
  18    9   10 1
  19    9   45 1
  20    9   46 1
  21   10   11 1
  22   10   47 1
  23   10   48 1
  24   11   12 1
  25   11   17 1
  26   12   49 1
  27   12   50 1
  28   13   14 2
  29   13   15 am
  30   15   27 1
  31   15   51 1
  32   16   18 1
  33   16   52 1
  34   17   21 ar
  35   17   25 ar
  36   18   19 1
  37   18   53 1
  38   18   54 1
  39   19   36 ar
  40   19   20 ar
  41   20   39 ar
  42   21   22 ar
  43   21   55 1
  44   22   23 ar
  45   22   56 1
  46   23   24 ar
  47   23   57 1
  48   24   25 ar
  49   24   58 1
  50   25   26 1
  51   26   59 1
  52   26   60 1
  53   26   61 1
  54   27   28 1
  55   27   62 1
  56   27   63 1
  57   28   29 1
  58   28   64 1
  59   28   65 1
  60   29   30 1
  61   29   66 1
  62   29   67 1
  63   30   31 am
  64   30   32 1
  65   31   35 2
  66   31   34 1
  67   32   33 1
  68   32   68 1
  69   32   69 1
  70   33   34 1
  71   33   70 1
  72   33   71 1
  73   34   72 1
  74   34   73 1
  75   36   37 ar
  76   36   74 1
  77   37   38 ar
  78   37   75 1
  79   38   39 ar
  80   38   76 1
  81   39   77 1

#	End of record

