#	Name: ASD03540097
#	Creating user name:	WinNT
#	Creation time:	15. 06. 2019 20:42

#	Modifying user name:	WinNT
#	Modification time:	15. 06. 2019 20:42

#	Program:	/corina/corina34_cracker 3.40 0067  02.08.2006

@<TRIPOS>MOLECULE
ASD03540097
  54   56    0    0    0
SMALL
NO_CHARGES


@<TRIPOS>ATOM
   1 C1            -0.0180     1.4744     0.0101 C.2     
   2 C2             0.0021    -0.0041     0.0020 C.ar    
   3 C3             1.2170    -0.6857    -0.0132 C.ar    
   4 C4             1.2270    -2.0788    -0.0203 C.ar    
   5 C5             2.5118    -2.8105    -0.0360 C.2     
   6 C6             0.0206    -2.7828    -0.0121 C.ar    
   7 C7            -1.1801    -2.1011     0.0030 C.ar    
   8 C8            -1.1970    -0.7204     0.0155 C.ar    
   9 O9             1.0263     2.0964     0.0035 O.2     
  10 N10           -1.1942     2.1323     0.0193 N.am    
  11 O11            3.5608    -2.1965    -0.0428 O.2     
  12 N12            2.5197    -4.1582    -0.0429 N.am    
  13 C13            3.7927    -4.8831    -0.0584 C.3     
  14 C14            3.5261    -6.3663    -0.0634 C.ar    
  15 C15            3.3928    -7.0396    -1.2637 C.ar    
  16 C16            3.1483    -8.3992    -1.2709 C.ar    
  17 C17            3.0366    -9.0891    -0.0725 C.ar    
  18 C18            3.1708    -8.4113     1.1305 C.ar    
  19 C19            3.4208    -7.0526     1.1323 C.ar    
  20 O20            2.7958   -10.4266    -0.0769 O.3     
  21 C21            2.6929   -11.0715     1.1941 C.3     
  22 C22           -1.2141     3.5972     0.0274 C.3     
  23 C23           -2.6415     4.0801     0.0368 C.ar    
  24 C24           -3.2896     4.2948     1.2391 C.ar    
  25 C25           -4.5981     4.7375     1.2504 C.ar    
  26 C26           -5.2620     4.9667     0.0540 C.ar    
  27 C27           -4.6095     4.7506    -1.1511 C.ar    
  28 C28           -3.2991     4.3132    -1.1570 C.ar    
  29 O29           -6.5494     5.4018     0.0625 O.3     
  30 C30           -7.1700     5.6167    -1.2067 C.3     
  31 H31            2.1469    -0.1366    -0.0199 H       
  32 H32            0.0269    -3.8628    -0.0180 H       
  33 H33           -2.1100    -2.6502     0.0090 H       
  34 H34           -2.1395    -0.1933     0.0318 H       
  35 H35           -2.0276     1.6360     0.0206 H       
  36 H36            1.6826    -4.6482    -0.0375 H       
  37 H37            4.3543    -4.6119    -0.9524 H       
  38 H38            4.3710    -4.6209     0.8275 H       
  39 H39            3.4794    -6.5020    -2.1964 H       
  40 H40            3.0439    -8.9246    -2.2087 H       
  41 H41            3.0842    -8.9461     2.0648 H       
  42 H42            3.5301    -6.5253     2.0685 H       
  43 H43            3.6260   -10.9438     1.7429 H       
  44 H44            1.8743   -10.6284     1.7612 H       
  45 H45            2.5000   -12.1343     1.0477 H       
  46 H46           -0.7010     3.9626     0.9169 H       
  47 H47           -0.7094     3.9723    -0.8630 H       
  48 H48           -2.7725     4.1159     2.1702 H       
  49 H49           -5.1040     4.9047     2.1898 H       
  50 H50           -5.1242     4.9282    -2.0838 H       
  51 H51           -2.7892     4.1494    -2.0948 H       
  52 H52           -6.6102     6.3692    -1.7621 H       
  53 H53           -7.1801     4.6829    -1.7689 H       
  54 H54           -8.1930     5.9619    -1.0572 H       
@<TRIPOS>BOND
   1    1    2 1
   2    1    9 2
   3    1   10 am
   4    2    3 ar
   5    2    8 ar
   6    3    4 ar
   7    3   31 1
   8    4    5 1
   9    4    6 ar
  10    5   11 2
  11    5   12 am
  12    6    7 ar
  13    6   32 1
  14    7    8 ar
  15    7   33 1
  16    8   34 1
  17   10   22 1
  18   10   35 1
  19   12   13 1
  20   12   36 1
  21   13   14 1
  22   13   37 1
  23   13   38 1
  24   14   15 ar
  25   14   19 ar
  26   15   16 ar
  27   15   39 1
  28   16   17 ar
  29   16   40 1
  30   17   18 ar
  31   17   20 1
  32   18   19 ar
  33   18   41 1
  34   19   42 1
  35   20   21 1
  36   21   43 1
  37   21   44 1
  38   21   45 1
  39   22   23 1
  40   22   46 1
  41   22   47 1
  42   23   24 ar
  43   23   28 ar
  44   24   25 ar
  45   24   48 1
  46   25   26 ar
  47   25   49 1
  48   26   27 ar
  49   26   29 1
  50   27   28 ar
  51   27   50 1
  52   28   51 1
  53   29   30 1
  54   30   52 1
  55   30   53 1
  56   30   54 1

#	End of record

