#	Name: ASD01209186
#	Creating user name:	WinNT
#	Creation time:	15. 06. 2019 19:11

#	Modifying user name:	WinNT
#	Modification time:	15. 06. 2019 19:11

#	Program:	/corina/corina34_cracker 3.40 0067  02.08.2006

@<TRIPOS>MOLECULE
ASD01209186
  69   71    0    0    0
SMALL
NO_CHARGES


@<TRIPOS>ATOM
   1 O1             2.3499    -0.8056     0.8615 O.3     
   2 O2             4.1344     0.5337     2.2522 O.3     
   3 C3             8.6493     9.1596     2.7943 C.ar    
   4 C4             8.1960     9.1787     4.1052 C.ar    
   5 C5             7.2086     8.2941     4.5150 C.ar    
   6 C6             6.6707     7.3887     3.6159 C.ar    
   7 C7             7.1238     7.3660     2.2961 C.ar    
   8 C8             8.1131     8.2607     1.8870 C.ar    
   9 O9             6.7688     8.3165     5.8008 O.3     
  10 C10            6.5533     6.4005     1.3330 C.2     
  11 N11            5.5942     5.5405     1.7290 N.am    
  12 O12            6.9493     6.3823     0.1839 O.2     
  13 C13            5.0581     4.6333     0.8241 C.2     
  14 P14            3.4639     0.3550     0.7994 P.3     
  15 O15            4.5071    -0.0145    -0.1833 O.2     
  16 C16            2.6813     1.9221     0.2944 C.3     
  17 N17            4.1350     3.7660     1.1006 N.2     
  18 S18            5.5144     4.5028    -0.8184 S.3     
  19 C19            4.3593     3.1922    -1.0461 C.2     
  20 C20            3.7411     2.9787     0.1172 C.2     
  21 C21            2.6655    -2.1740     1.1258 C.3     
  22 C22            1.3811    -3.0053     1.1133 C.3     
  23 C23            4.9157    -0.4852     2.8795 C.3     
  24 C24            5.3986     0.0100     4.2442 C.3     
  25 O25            9.6170    10.0278     2.3983 O.3     
  26 C26            9.9523    10.0360     1.0092 C.3     
  27 C27           10.5365    11.3993     0.6336 C.3     
  28 C28           10.9854     8.9433     0.7275 C.3     
  29 C29            7.3671     9.2759     6.6746 C.3     
  30 S30            6.7164    10.9265     6.2966 S.o2    
  31 O31            7.2380    11.8878     7.2037 O.2     
  32 O32            6.7301    11.1589     4.8948 O.2     
  33 C33            5.0050    10.8283     6.7041 C.ar    
  34 C34            4.5794    11.1426     7.9812 C.ar    
  35 C35            3.2368    11.0655     8.3009 C.ar    
  36 C36            2.3196    10.6747     7.3433 C.ar    
  37 C37            2.7450    10.3613     6.0659 C.ar    
  38 C38            4.0872    10.4425     5.7450 C.ar    
  39 H39            8.6132     9.8838     4.8089 H       
  40 H40            5.9024     6.7003     3.9358 H       
  41 H41            8.4666     8.2465     0.8665 H       
  42 H42            5.2782     5.5550     2.6460 H       
  43 H43            2.1519     1.7770    -0.6473 H       
  44 H44            1.9761     2.2401     1.0624 H       
  45 H45            4.1800     2.6575    -1.9671 H       
  46 H46            3.3457    -2.5447     0.3590 H       
  47 H47            3.1411    -2.2550     2.1033 H       
  48 H48            0.9055    -2.9244     0.1358 H       
  49 H49            1.6219    -4.0491     1.3149 H       
  50 H50            0.7009    -2.6347     1.8801 H       
  51 H51            4.3072    -1.3798     3.0120 H       
  52 H52            5.7761    -0.7205     2.2531 H       
  53 H53            6.0071     0.9046     4.1116 H       
  54 H54            4.5381     0.2454     4.8706 H       
  55 H55            5.9945    -0.7672     4.7227 H       
  56 H56            9.0557     9.8496     0.4179 H       
  57 H57           11.4330    11.5857     1.2248 H       
  58 H58           10.7922    11.4055    -0.4260 H       
  59 H59            9.8005    12.1778     0.8343 H       
  60 H60           11.2411     8.9495    -0.3321 H       
  61 H61           11.8819     9.1297     1.3187 H       
  62 H62           10.5692     7.9720     0.9950 H       
  63 H63            7.1335     9.0212     7.7083 H       
  64 H64            8.4480     9.2706     6.5344 H       
  65 H65            5.2960    11.4479     8.7293 H       
  66 H66            2.9044    11.3104     9.2989 H       
  67 H67            1.2707    10.6138     7.5933 H       
  68 H68            2.0285    10.0556     5.3179 H       
  69 H69            4.4196    10.1977     4.7471 H       
@<TRIPOS>BOND
   1    1   21 1
   2    1   14 1
   3    2   23 1
   4    2   14 1
   5    3    4 ar
   6    3   25 1
   7    3    8 ar
   8    4    5 ar
   9    4   39 1
  10    5    6 ar
  11    5    9 1
  12    6    7 ar
  13    6   40 1
  14    7    8 ar
  15    7   10 1
  16    8   41 1
  17    9   29 1
  18   10   11 am
  19   10   12 2
  20   11   13 1
  21   11   42 1
  22   13   17 2
  23   13   18 1
  24   14   15 2
  25   14   16 1
  26   16   20 1
  27   16   43 1
  28   16   44 1
  29   17   20 1
  30   18   19 1
  31   19   20 2
  32   19   45 1
  33   21   22 1
  34   21   46 1
  35   21   47 1
  36   22   48 1
  37   22   49 1
  38   22   50 1
  39   23   24 1
  40   23   51 1
  41   23   52 1
  42   24   53 1
  43   24   54 1
  44   24   55 1
  45   25   26 1
  46   26   27 1
  47   26   28 1
  48   26   56 1
  49   27   57 1
  50   27   58 1
  51   27   59 1
  52   28   60 1
  53   28   61 1
  54   28   62 1
  55   29   30 1
  56   29   63 1
  57   29   64 1
  58   30   31 2
  59   30   32 2
  60   30   33 1
  61   33   34 ar
  62   33   38 ar
  63   34   35 ar
  64   34   65 1
  65   35   36 ar
  66   35   66 1
  67   36   37 ar
  68   36   67 1
  69   37   38 ar
  70   37   68 1
  71   38   69 1

#	End of record

