#	Name: ASD01841081
#	Creating user name:	WinNT
#	Creation time:	15. 06. 2019 19:38

#	Modifying user name:	WinNT
#	Modification time:	15. 06. 2019 19:38

#	Program:	/corina/corina34_cracker 3.40 0067  02.08.2006

@<TRIPOS>MOLECULE
ASD01841081
  51   53    0    0    0
SMALL
NO_CHARGES


@<TRIPOS>ATOM
   1 C1            -0.2342     1.4161     0.2995 C.ar    
   2 C2            -0.2532     0.0188     0.3719 C.ar    
   3 C3             0.9222    -0.6498     0.7827 C.ar    
   4 C4             2.0351     0.0985     1.0941 C.ar    
   5 C5             1.9762     1.4807     0.9977 C.ar    
   6 N6             0.8769     2.0874     0.6153 N.ar    
   7 C7            -1.5424    -0.5350    -0.0064 C.2     
   8 C8            -2.4648     0.3969    -0.3516 C.2     
   9 S9            -1.8033     2.0147    -0.2259 S.3     
  10 C10           -3.7906     0.1016    -0.7568 C.2     
  11 O11           -4.1670    -1.0552    -0.8121 O.2     
  12 N12           -4.6346     1.1012    -1.0809 N.am    
  13 C13           -6.0049     0.7960    -1.4996 C.3     
  14 C14           -6.7349     2.0789    -1.8032 C.ar    
  15 C15           -6.7062     2.6022    -3.0823 C.ar    
  16 C16           -7.3762     3.7827    -3.3657 C.ar    
  17 C17           -8.0777     4.4396    -2.3617 C.ar    
  18 C18           -8.1044     3.9099    -1.0771 C.ar    
  19 C19           -7.4361     2.7262    -0.8032 C.ar    
  20 O20           -8.7890     4.5492    -0.0911 O.3     
  21 C21           -8.7732     3.9474     1.2049 C.3     
  22 O22           -8.7362     5.5987    -2.6356 O.3     
  23 C23          -10.0955     5.4874    -3.0622 C.3     
  24 O24           -7.3466     4.2973    -4.6242 O.3     
  25 C25           -6.6058     3.5691    -5.6055 C.3     
  26 C26            3.1943     2.2998     1.3386 C.3     
  27 C27            0.9566    -2.1534     0.8785 C.3     
  28 N28           -1.8060    -1.8975    -0.0141 N.pl3   
  29 H29            2.9464    -0.3869     1.4110 H       
  30 H30           -4.3348     2.0226    -1.0368 H       
  31 H31           -5.9813     0.1713    -2.3926 H       
  32 H32           -6.5200     0.2656    -0.6987 H       
  33 H33           -6.1609     2.0912    -3.8620 H       
  34 H34           -7.4600     2.3116     0.1938 H       
  35 H35           -9.2068     2.9490     1.1472 H       
  36 H36           -7.7452     3.8770     1.5603 H       
  37 H37           -9.3556     4.5570     1.8957 H       
  38 H38          -10.1415     4.9005    -3.9796 H       
  39 H39          -10.6807     4.9945    -2.2859 H       
  40 H40          -10.5011     6.4822    -3.2465 H       
  41 H41           -5.5637     3.4967    -5.2941 H       
  42 H42           -7.0247     2.5681    -5.7081 H       
  43 H43           -6.6638     4.0872    -6.5628 H       
  44 H44            3.7986     2.4424     0.4427 H       
  45 H45            2.8831     3.2703     1.7251 H       
  46 H46            3.7824     1.7792     2.0944 H       
  47 H47            1.1670    -2.5754    -0.1042 H       
  48 H48            1.7362    -2.4552     1.5780 H       
  49 H49           -0.0085    -2.5171     1.2311 H       
  50 H50           -1.0758    -2.5325    -0.0813 H       
  51 H51           -2.7206    -2.2149     0.0478 H       
@<TRIPOS>BOND
   1    1    2 ar
   2    1    6 ar
   3    1    9 1
   4    2    3 ar
   5    2    7 1
   6    3    4 ar
   7    3   27 1
   8    4    5 ar
   9    4   29 1
  10    5    6 ar
  11    5   26 1
  12    7    8 2
  13    7   28 1
  14    8    9 1
  15    8   10 1
  16   10   11 2
  17   10   12 am
  18   12   13 1
  19   12   30 1
  20   13   14 1
  21   13   31 1
  22   13   32 1
  23   14   15 ar
  24   14   19 ar
  25   15   16 ar
  26   15   33 1
  27   16   17 ar
  28   16   24 1
  29   17   18 ar
  30   17   22 1
  31   18   19 ar
  32   18   20 1
  33   19   34 1
  34   20   21 1
  35   21   35 1
  36   21   36 1
  37   21   37 1
  38   22   23 1
  39   23   38 1
  40   23   39 1
  41   23   40 1
  42   24   25 1
  43   25   41 1
  44   25   42 1
  45   25   43 1
  46   26   44 1
  47   26   45 1
  48   26   46 1
  49   27   47 1
  50   27   48 1
  51   27   49 1
  52   28   50 1
  53   28   51 1

#	End of record

