#	Name: ASD03091709
#	Creating user name:	WinNT
#	Creation time:	15. 06. 2019 20:31

#	Modifying user name:	WinNT
#	Modification time:	15. 06. 2019 20:31

#	Program:	/corina/corina34_cracker 3.40 0067  02.08.2006

@<TRIPOS>MOLECULE
ASD03091709
  54   56    0    0    0
SMALL
NO_CHARGES


@<TRIPOS>ATOM
   1 C1            -0.0162     1.3453     0.0094 C.2     
   2 C2             0.0021    -0.0041     0.0020 C.2     
   3 N3            -1.1891    -0.5619     0.0104 N.2     
   4 C4            -2.2149     0.2352     0.0244 C.2     
   5 S5            -1.6994     1.8650     0.0360 S.3     
   6 N6            -3.5353    -0.1761     0.0348 N.3     
   7 C7            -3.6302    -1.6432     0.0285 C.3     
   8 C8            -4.2751     0.3987    -1.0981 C.3     
   9 C9            -5.7416    -0.0329    -1.0147 C.3     
  10 O10           -5.8124    -1.4611    -0.9904 O.3     
  11 C11           -5.1032    -2.0543     0.1006 C.3     
  12 C12            1.1654     2.2296     0.0029 C.ar    
  13 C13            2.4623     1.6988    -0.0128 C.ar    
  14 C14            1.0220     3.6235     0.0064 C.ar    
  15 C15            2.1527     4.4111    -0.0005 C.ar    
  16 N16            3.3566     3.8694    -0.0106 N.ar    
  17 C17            3.5368     2.5615    -0.0189 C.ar    
  18 C18            2.0132     5.9117     0.0032 C.3     
  19 C19            4.9370     2.0044    -0.0298 C.3     
  20 C20           -5.2132    -3.5778     0.0136 C.3     
  21 H21            0.9173    -0.5774    -0.0098 H       
  22 H22           -3.1881    -2.0325    -0.8887 H       
  23 H23           -3.0972    -2.0461     0.8897 H       
  24 H24           -4.2130     1.4862    -1.0593 H       
  25 H25           -3.8434     0.0420    -2.0333 H       
  26 H26           -6.1882     0.3691    -0.1052 H       
  27 H27           -6.2818     0.3436    -1.8833 H       
  28 H28           -5.5311    -1.7110     1.0425 H       
  29 H29            2.6172     0.6300    -0.0197 H       
  30 H30            0.0403     4.0737     0.0139 H       
  31 H31            1.9870     6.2716     1.0317 H       
  32 H32            2.8619     6.3568    -0.5161 H       
  33 H33            1.0897     6.1919    -0.5035 H       
  34 H34            5.2802     1.8643     0.9952 H       
  35 H35            4.9427     1.0461    -0.5491 H       
  36 H36            5.6008     2.6999    -0.5434 H       
  37 H37           -4.7833    -3.9200    -0.9278 H       
  38 H38           -4.6725    -4.0293     0.8454 H       
  39 H39           -6.2624    -3.8696     0.0611 H       
  40 N40           11.6273    16.8423     6.5917 N.am    
  41 C41           11.6456    15.4946     6.5843 C.2     
  42 C42           12.9319    14.7751     6.5682 C.2     
  43 O43           10.6008    14.8723     6.5910 O.2     
  44 C44           14.2035    15.2944     6.5593 C.2     
  45 O45           15.0355    14.2506     6.5455 O.3     
  46 N46           14.4636    13.1881     6.5447 N.2     
  47 C47           13.1707    13.3236     6.5641 C.2     
  48 C48           12.1368    12.2272     6.5695 C.3     
  49 H49           12.4606    17.3386     6.5865 H       
  50 H50           10.7808    17.3158     6.5983 H       
  51 H51           14.4760    16.3395     6.5628 H       
  52 H52           11.9023    11.9540     7.5984 H       
  53 H53           11.2328    12.5779     6.0717 H       
  54 H54           12.5275    11.3568     6.0425 H       
@<TRIPOS>BOND
   1    1    2 2
   2    1   12 1
   3    1    5 1
   4    2    3 1
   5    2   21 1
   6    3    4 2
   7    4    5 1
   8    4    6 1
   9    6    7 1
  10    6    8 1
  11    7   11 1
  12    7   22 1
  13    7   23 1
  14    8    9 1
  15    8   24 1
  16    8   25 1
  17    9   10 1
  18    9   26 1
  19    9   27 1
  20   10   11 1
  21   11   20 1
  22   11   28 1
  23   12   13 ar
  24   12   14 ar
  25   13   17 ar
  26   13   29 1
  27   14   15 ar
  28   14   30 1
  29   15   16 ar
  30   15   18 1
  31   16   17 ar
  32   17   19 1
  33   18   31 1
  34   18   32 1
  35   18   33 1
  36   19   34 1
  37   19   35 1
  38   19   36 1
  39   20   37 1
  40   20   38 1
  41   20   39 1
  42   40   41 am
  43   40   49 1
  44   40   50 1
  45   41   42 1
  46   41   43 2
  47   42   44 2
  48   42   47 1
  49   44   45 1
  50   44   51 1
  51   45   46 1
  52   46   47 2
  53   47   48 1
  54   48   52 1
  55   48   53 1
  56   48   54 1

#	End of record

