#	Name: ASD03912044
#	Creating user name:	WinNT
#	Creation time:	15. 06. 2019 20:47

#	Modifying user name:	WinNT
#	Modification time:	15. 06. 2019 20:47

#	Program:	/corina/corina34_cracker 3.40 0067  02.08.2006

@<TRIPOS>MOLECULE
ASD03912044
  94   97    0    0    0
SMALL
NO_CHARGES


@<TRIPOS>ATOM
   1 C1             0.5570    16.2475    -5.1950 C.ar    
   2 C2             0.9922    16.4222    -6.4959 C.ar    
   3 C3             1.5823    15.3736    -7.1774 C.ar    
   4 C4             1.7383    14.1478    -6.5605 C.ar    
   5 C5             1.3023    13.9691    -5.2542 C.ar    
   6 C6             0.7157    15.0259    -4.5704 C.ar    
   7 C7            -0.0855    17.3929    -4.4560 C.3     
   8 C8             2.0551    15.5685    -8.5950 C.3     
   9 N9             1.4589    12.7285    -4.6264 N.am    
  10 C10            0.5364    12.2994    -3.7424 C.2     
  11 C11            0.6488    10.9200    -3.1458 C.3     
  12 O12           -0.3842    13.0233    -3.4270 O.2     
  13 C13           -0.4978    10.6887    -2.1956 C.ar    
  14 C14           -1.6790    10.1403    -2.6599 C.ar    
  15 C15           -2.7315     9.9273    -1.7909 C.ar    
  16 C16           -2.6026    10.2641    -0.4513 C.ar    
  17 C17           -1.4163    10.8143     0.0121 C.ar    
  18 C18           -0.3647    11.0201    -0.8598 C.ar    
  19 O19           -3.6367    10.0560     0.4055 O.3     
  20 C20           -3.4133    10.3723     1.7810 C.3     
  21 C21           -2.2516     9.5727     2.3121 C.2     
  22 C22           -3.1326    11.8772     1.9369 C.3     
  23 C23           -4.2412    12.4400     2.8502 C.3     
  24 C24           -4.7307    11.2106     3.6552 C.3     
  25 C25           -4.6823    10.0719     2.6051 C.3     
  26 N26           -2.0627     8.3034     1.9001 N.am    
  27 O27           -1.4866    10.0714     3.1102 O.2     
  28 C28           -0.8779     7.5604     2.3363 C.3     
  29 C29           -1.1455     6.9318     3.6796 C.2     
  30 O30           -2.2160     7.0884     4.2174 O.2     
  31 O31           -0.1945     6.1979     4.2785 O.3     
  32 C32            3.9747     5.5030    -9.5228 C.ar    
  33 C33            4.3334     6.0870   -10.7310 C.ar    
  34 C34            5.6663     6.2949   -11.0270 C.ar    
  35 C35            6.6433     5.9222   -10.1221 C.ar    
  36 C36            6.2898     5.3405    -8.9184 C.ar    
  37 C37            4.9585     5.1351    -8.6137 C.ar    
  38 C38           -0.5578     6.4663     1.3159 C.3     
  39 C39           -0.1646     7.1097    -0.0154 C.3     
  40 C40            0.1555     6.0156    -1.0358 C.3     
  41 C41            0.5486     6.6590    -2.3671 C.3     
  42 C42            0.8687     5.5649    -3.3876 C.3     
  43 N43            2.6277     5.2913    -9.2203 N.pl3   
  44 C44            2.2512     4.6752    -7.9456 C.3     
  45 O45            1.9523     5.6971    -6.9925 O.3     
  46 O46            1.5608     5.1864    -5.6719 O.3     
  47 C47            1.2618     6.2083    -4.7188 C.3     
  48 H48            0.8707    17.3796    -6.9808 H       
  49 H49            2.1986    13.3291    -7.0936 H       
  50 H50            0.3759    14.8902    -3.5543 H       
  51 H51           -1.1621    17.3764    -4.6255 H       
  52 H52            0.1159    17.2956    -3.3892 H       
  53 H53            0.3250    18.3353    -4.8188 H       
  54 H54            3.0909    15.9081    -8.5891 H       
  55 H55            1.9857    14.6238    -9.1343 H       
  56 H56            1.4309    16.3144    -9.0870 H       
  57 H57            2.2313    12.1772    -4.8273 H       
  58 H58            0.6167    10.1762    -3.9418 H       
  59 H59            1.5916    10.8336    -2.6055 H       
  60 H60           -1.7790     9.8785    -3.7029 H       
  61 H61           -3.6541     9.4992    -2.1542 H       
  62 H62           -1.3135    11.0774     1.0545 H       
  63 H63            0.5590    11.4484    -0.4996 H       
  64 H64           -2.1565    12.0292     2.3975 H       
  65 H65           -3.1668    12.3662     0.9634 H       
  66 H66           -3.8354    13.1978     3.5203 H       
  67 H67           -5.0541    12.8533     2.2531 H       
  68 H68           -4.0565    10.9988     4.4850 H       
  69 H69           -5.7490    11.3635     4.0127 H       
  70 H70           -5.5664    10.1025     1.9682 H       
  71 H71           -4.5987     9.1028     3.0969 H       
  72 H72           -2.7113     7.8819     1.3148 H       
  73 H73           -0.0308     8.2417     2.4163 H       
  74 H74           -0.4125     5.8149     5.1393 H       
  75 H75            3.5709     6.3780   -11.4383 H       
  76 H76            5.9459     6.7486   -11.9663 H       
  77 H77            7.6849     6.0856   -10.3562 H       
  78 H78            7.0553     5.0504    -8.2141 H       
  79 H79            4.6830     4.6807    -7.6734 H       
  80 H80            0.2684     5.8574     1.6831 H       
  81 H81           -1.4360     5.8373     1.1701 H       
  82 H82           -0.9908     7.7186    -0.3826 H       
  83 H83            0.7135     7.7387     0.1304 H       
  84 H84            0.9816     5.4067    -0.6686 H       
  85 H85           -0.7227     5.3866    -1.1816 H       
  86 H86           -0.2775     7.2679    -2.7344 H       
  87 H87            1.4268     7.2880    -2.2213 H       
  88 H88            1.6948     4.9560    -3.0203 H       
  89 H89           -0.0095     4.9359    -3.5333 H       
  90 H90            1.9414     5.5522    -9.8542 H       
  91 H91            1.3731     4.0462    -8.0914 H       
  92 H92            3.0774     4.0663    -7.5783 H       
  93 H93            0.4357     6.8172    -5.0861 H       
  94 H94            2.1400     6.8374    -4.5730 H       
@<TRIPOS>BOND
   1    1    2 ar
   2    1    7 1
   3    1    6 ar
   4    2    3 ar
   5    2   48 1
   6    3    4 ar
   7    3    8 1
   8    4    5 ar
   9    4   49 1
  10    5    6 ar
  11    5    9 1
  12    6   50 1
  13    7   51 1
  14    7   52 1
  15    7   53 1
  16    8   54 1
  17    8   55 1
  18    8   56 1
  19    9   10 am
  20    9   57 1
  21   10   11 1
  22   10   12 2
  23   11   13 1
  24   11   58 1
  25   11   59 1
  26   13   14 ar
  27   13   18 ar
  28   14   15 ar
  29   14   60 1
  30   15   16 ar
  31   15   61 1
  32   16   17 ar
  33   16   19 1
  34   17   18 ar
  35   17   62 1
  36   18   63 1
  37   19   20 1
  38   20   21 1
  39   20   22 1
  40   20   25 1
  41   21   26 am
  42   21   27 2
  43   22   23 1
  44   22   64 1
  45   22   65 1
  46   23   24 1
  47   23   66 1
  48   23   67 1
  49   24   25 1
  50   24   68 1
  51   24   69 1
  52   25   70 1
  53   25   71 1
  54   26   28 1
  55   26   72 1
  56   28   29 1
  57   28   38 1
  58   28   73 1
  59   29   30 2
  60   29   31 1
  61   31   74 1
  62   32   33 ar
  63   32   43 1
  64   32   37 ar
  65   33   34 ar
  66   33   75 1
  67   34   35 ar
  68   34   76 1
  69   35   36 ar
  70   35   77 1
  71   36   37 ar
  72   36   78 1
  73   37   79 1
  74   38   39 1
  75   38   80 1
  76   38   81 1
  77   39   40 1
  78   39   82 1
  79   39   83 1
  80   40   41 1
  81   40   84 1
  82   40   85 1
  83   41   42 1
  84   41   86 1
  85   41   87 1
  86   42   47 1
  87   42   88 1
  88   42   89 1
  89   43   44 1
  90   43   90 1
  91   44   45 1
  92   44   91 1
  93   44   92 1
  94   45   46 1
  95   46   47 1
  96   47   93 1
  97   47   94 1

#	End of record

