#	Name: ASD00842076
#	Creating user name:	WinNT
#	Creation time:	15. 06. 2019 18:43

#	Modifying user name:	WinNT
#	Modification time:	15. 06. 2019 18:43

#	Program:	/corina/corina34_cracker 3.40 0067  02.08.2006

@<TRIPOS>MOLECULE
ASD00842076
  85   90    0    0    0
SMALL
NO_CHARGES


@<TRIPOS>ATOM
   1 F1             6.0976    -1.6098    -1.9650 F       
   2 C2             1.0024     1.5587    -0.3004 C.ar    
   3 C3             1.3111     0.2348    -0.5758 C.ar    
   4 C4             1.2462    -0.7148     0.4339 C.ar    
   5 C5             0.8745    -0.3398     1.7102 C.ar    
   6 C6             0.5668     0.9808     1.9821 C.ar    
   7 C7             0.6312     1.9288     0.9780 C.ar    
   8 C8             1.5804    -2.1542     0.1380 C.3     
   9 C9             1.3157    -3.0202     1.3512 C.2     
  10 C10            0.7753    -2.6540    -1.0632 C.3     
  11 C11           -0.6940    -2.4352    -0.8093 C.2     
  12 N12           -1.6056    -2.8946    -1.6893 N.am    
  13 O13           -1.0561    -1.8458     0.1869 O.2     
  14 C14           -3.0357    -2.5958    -1.5199 C.3     
  15 C15           -3.5740    -2.0290    -2.8379 C.3     
  16 N16           -3.2588    -2.9577    -3.9316 N.3     
  17 C17           -1.8074    -3.0975    -4.1103 C.3     
  18 C18           -1.1961    -3.7029    -2.8478 C.3     
  19 C19           -3.9051    -2.5372    -5.1820 C.3     
  20 C20           -3.4558    -3.4535    -6.3235 C.3     
  21 C21           -4.1786    -3.0491    -7.6104 C.3     
  22 N22           -5.6297    -3.1584    -7.4133 N.3     
  23 C23           -6.0914    -2.2525    -6.3538 C.3     
  24 C24           -5.4257    -2.6331    -5.0294 C.3     
  25 H25           -6.1254    -2.9887    -8.2756 H       
  26 O26            0.2459    -3.1868     1.8978 O.2     
  27 N27            2.4885    -3.5702     1.7083 N.am    
  28 C28            3.0626    -2.3131    -0.1112 C.ar    
  29 C29            3.5339    -3.1757     0.8706 C.ar    
  30 C30            3.9135    -1.7892    -1.0581 C.ar    
  31 C31            5.2588    -2.1219    -1.0381 C.ar    
  32 C32            5.7404    -2.9813    -0.0636 C.ar    
  33 C33            4.8869    -3.5068     0.8861 C.ar    
  34 Cl34           7.4251    -3.3994    -0.0367 Cl      
  35 C35            2.4216    -6.2346     2.3947 C.ar    
  36 C36            1.1779    -6.6133     1.9113 C.ar    
  37 C37            3.4646    -7.1408     2.4004 C.ar    
  38 C38            3.2695    -8.4239     1.9243 C.ar    
  39 C39            2.0305    -8.8040     1.4418 C.ar    
  40 C40            0.9846    -7.9019     1.4344 C.ar    
  41 H41            1.8806    -9.8070     1.0704 H       
  42 O42            0.1503    -5.7240     1.9051 O.3     
  43 C43           -1.1021    -6.1833     1.3927 C.3     
  44 S44            2.6732    -4.5969     2.9944 S.o2    
  45 O45            4.0386    -4.5160     3.3796 O.2     
  46 O46            1.5977    -4.3252     3.8825 O.2     
  47 O47            1.6761    -0.1318    -1.8324 O.3     
  48 C48            2.1527     0.3076    -4.1606 C.3     
  49 C49            1.6125     0.8737    -2.8458 C.3     
  50 H50            1.0566     2.3005    -1.0835 H       
  51 H51            0.8238    -1.0785     2.4964 H       
  52 H52            0.2757     1.2719     2.9805 H       
  53 H53            0.3904     2.9595     1.1929 H       
  54 H54            1.0755    -2.1049    -1.9556 H       
  55 H55            0.9643    -3.7174    -1.2102 H       
  56 H56           -3.5734    -3.5098    -1.2676 H       
  57 H57           -3.1646    -1.8607    -0.7254 H       
  58 H58           -4.6546    -1.9050    -2.7661 H       
  59 H59           -3.1090    -1.0632    -3.0354 H       
  60 H60           -1.6068    -3.7483    -4.9614 H       
  61 H61           -1.3670    -2.1168    -4.2901 H       
  62 H62           -0.1092    -3.7024    -2.9308 H       
  63 H63           -1.5559    -4.7238    -2.7200 H       
  64 H64           -3.6250    -1.5086    -5.4088 H       
  65 H65           -2.3793    -3.3573    -6.4651 H       
  66 H66           -3.7002    -4.4870    -6.0783 H       
  67 H67           -3.9228    -2.0199    -7.8625 H       
  68 H68           -3.8716    -3.7087    -8.4220 H       
  69 H69           -5.8266    -1.2271    -6.6118 H       
  70 H70           -7.1736    -2.3335    -6.2528 H       
  71 H71           -5.7011    -3.6538    -4.7638 H       
  72 H72           -5.7566    -1.9508    -4.2465 H       
  73 H73            3.5332    -1.1201    -1.8157 H       
  74 H74            5.2692    -4.1760     1.6426 H       
  75 H75            4.4331    -6.8463     2.7767 H       
  76 H76            4.0862    -9.1306     1.9289 H       
  77 H77            0.0169    -8.1995     1.0581 H       
  78 H78           -1.4498    -7.0284     1.9869 H       
  79 H79           -1.8337    -5.3769     1.4449 H       
  80 H80           -0.9782    -6.4948     0.3556 H       
  81 H81            1.4999    -0.4938    -4.5065 H       
  82 H82            2.1859     1.0983    -4.9102 H       
  83 H83            3.1571    -0.0849    -4.0017 H       
  84 H84            0.5774     1.1864    -2.9829 H       
  85 H85            2.2143     1.7313    -2.5450 H       
@<TRIPOS>BOND
   1    1   31 1
   2    2    3 ar
   3    2    7 ar
   4    2   50 1
   5    3    4 ar
   6    3   47 1
   7    4    5 ar
   8    4    8 1
   9    5    6 ar
  10    5   51 1
  11    6    7 ar
  12    6   52 1
  13    7   53 1
  14    8    9 1
  15    8   10 1
  16    8   28 1
  17    9   26 2
  18    9   27 am
  19   10   11 1
  20   10   54 1
  21   10   55 1
  22   11   12 am
  23   11   13 2
  24   12   14 1
  25   12   18 1
  26   14   15 1
  27   14   56 1
  28   14   57 1
  29   15   16 1
  30   15   58 1
  31   15   59 1
  32   16   17 1
  33   16   19 1
  34   17   18 1
  35   17   60 1
  36   17   61 1
  37   18   62 1
  38   18   63 1
  39   19   20 1
  40   19   24 1
  41   19   64 1
  42   20   21 1
  43   20   65 1
  44   20   66 1
  45   21   22 1
  46   21   67 1
  47   21   68 1
  48   22   23 1
  49   22   25 1
  50   23   24 1
  51   23   69 1
  52   23   70 1
  53   24   71 1
  54   24   72 1
  55   27   44 am
  56   27   29 1
  57   28   29 ar
  58   28   30 ar
  59   29   33 ar
  60   30   31 ar
  61   30   73 1
  62   31   32 ar
  63   32   33 ar
  64   32   34 1
  65   33   74 1
  66   35   36 ar
  67   35   37 ar
  68   35   44 1
  69   36   42 1
  70   36   40 ar
  71   37   38 ar
  72   37   75 1
  73   38   39 ar
  74   38   76 1
  75   39   40 ar
  76   39   41 1
  77   40   77 1
  78   42   43 1
  79   43   78 1
  80   43   79 1
  81   43   80 1
  82   44   45 2
  83   44   46 2
  84   47   49 1
  85   48   49 1
  86   48   81 1
  87   48   82 1
  88   48   83 1
  89   49   84 1
  90   49   85 1

#	End of record

