#	Name: ASD01884763
#	Creating user name:	WinNT
#	Creation time:	15. 06. 2019 19:48

#	Modifying user name:	WinNT
#	Modification time:	15. 06. 2019 19:48

#	Program:	/corina/corina34_cracker 3.40 0067  02.08.2006

@<TRIPOS>MOLECULE
ASD01884763
  49   51    0    0    0
SMALL
NO_CHARGES


@<TRIPOS>ATOM
   1 C1            -0.0167     1.3834     0.0096 C.ar    
   2 C2             0.0021    -0.0041     0.0020 C.ar    
   3 C3             1.2022    -0.6935    -0.0126 C.ar    
   4 C4             2.4069     0.0229    -0.0202 C.ar    
   5 C5             2.3801     1.4357    -0.0129 C.ar    
   6 C6             1.1565     2.1055     0.0023 C.ar    
   7 C7             3.7068    -0.6486    -0.0352 C.2     
   8 C8             4.8300     0.0877    -0.0415 C.2     
   9 N9             4.8093     1.4539    -0.0341 N.am    
  10 C10            3.6587     2.1555    -0.0208 C.2     
  11 O11            3.6800     3.3733    -0.0149 O.2     
  12 C12            6.0812     2.1808    -0.0414 C.3     
  13 N13            1.2126    -2.0889    -0.0193 N.pl3   
  14 C14            6.5113     2.4415    -1.4864 C.3     
  15 C15            7.8396     3.2007    -1.4940 C.3     
  16 C16           -0.0505    -2.8310    -0.0108 C.3     
  17 C17            0.2403    -4.3330    -0.0207 C.3     
  18 C18           -1.0591    -5.0963    -0.0120 C.ar    
  19 C19           -1.6655    -5.4402    -1.2060 C.ar    
  20 C20           -2.8567    -6.1399    -1.2007 C.ar    
  21 C21           -3.4443    -6.4975     0.0041 C.ar    
  22 C22           -2.8338    -6.1513     1.2008 C.ar    
  23 C23           -1.6399    -5.4565     1.1900 C.ar    
  24 O24           -4.6163    -7.1855     0.0120 O.3     
  25 C25           -5.1636    -7.5201     1.2889 C.3     
  26 H26            3.7625    -1.7271    -0.0407 H       
  27 H27           -0.9631     1.9038     0.0169 H       
  28 H28           -0.9289    -0.5514     0.0079 H       
  29 H29            1.1291     3.1851     0.0084 H       
  30 H30            5.7841    -0.4184    -0.0526 H       
  31 H31            5.9596     3.1310     0.4785 H       
  32 H32            6.8427     1.5857     0.4626 H       
  33 H33            2.0562    -2.5676    -0.0296 H       
  34 H34            6.6329     1.4913    -2.0064 H       
  35 H35            5.7498     3.0367    -1.9904 H       
  36 H36            7.7180     4.1510    -0.9741 H       
  37 H37            8.6011     2.6056    -0.9900 H       
  38 H38            8.1460     3.3865    -2.5234 H       
  39 H39           -0.6156    -2.5761     0.8858 H       
  40 H40           -0.6325    -2.5677    -0.8941 H       
  41 H41            0.8053    -4.5878    -0.9173 H       
  42 H42            0.8222    -4.5962     0.8626 H       
  43 H43           -1.2078    -5.1613    -2.1436 H       
  44 H44           -3.3302    -6.4080    -2.1336 H       
  45 H45           -3.2894    -6.4285     2.1399 H       
  46 H46           -1.1642    -5.1867     2.1213 H       
  47 H47           -5.3561    -6.6071     1.8523 H       
  48 H48           -6.0968    -8.0664     1.1524 H       
  49 H49           -4.4552    -8.1421     1.8361 H       
@<TRIPOS>BOND
   1    1    2 ar
   2    1    6 ar
   3    1   27 1
   4    2    3 ar
   5    2   28 1
   6    3    4 ar
   7    3   13 1
   8    4    5 ar
   9    4    7 1
  10    5    6 ar
  11    5   10 1
  12    6   29 1
  13    7    8 2
  14    7   26 1
  15    8    9 1
  16    8   30 1
  17    9   10 am
  18    9   12 1
  19   10   11 2
  20   12   14 1
  21   12   31 1
  22   12   32 1
  23   13   16 1
  24   13   33 1
  25   14   15 1
  26   14   34 1
  27   14   35 1
  28   15   36 1
  29   15   37 1
  30   15   38 1
  31   16   17 1
  32   16   39 1
  33   16   40 1
  34   17   18 1
  35   17   41 1
  36   17   42 1
  37   18   19 ar
  38   18   23 ar
  39   19   20 ar
  40   19   43 1
  41   20   21 ar
  42   20   44 1
  43   21   22 ar
  44   21   24 1
  45   22   23 ar
  46   22   45 1
  47   23   46 1
  48   24   25 1
  49   25   47 1
  50   25   48 1
  51   25   49 1

#	End of record

