#	Name: ASD01940266
#	Creating user name:	WinNT
#	Creation time:	15. 06. 2019 20:12

#	Modifying user name:	WinNT
#	Modification time:	15. 06. 2019 20:12

#	Program:	/corina/corina34_cracker 3.40 0067  02.08.2006

@<TRIPOS>MOLECULE
ASD01940266
  42   44    0    0    0
SMALL
NO_CHARGES


@<TRIPOS>ATOM
   1 C1            -3.5792    -1.8993    -1.3548 C.2     
   2 C2            -2.5377    -1.0146    -1.3051 C.2     
   3 C3            -2.5230    -0.1330    -2.3591 C.2     
   4 C4            -3.5165    -0.2877    -3.2429 C.2     
   5 S5            -4.5424    -1.5733    -2.7892 S.3     
   6 C6            -3.8459    -2.9531    -0.3741 C.2     
   7 O7            -3.0683    -3.1424     0.5418 O.2     
   8 O8            -4.9541    -3.7140    -0.4863 O.3     
   9 S9            -1.3347    -1.0054    -0.0177 S.o2    
  10 O10           -0.8577    -2.3392     0.0951 O.2     
  11 O11           -0.4850     0.1051    -0.2704 O.2     
  12 N12           -2.1315    -0.6726     1.3953 N.am    
  13 C13           -2.6926     0.5947     1.6015 C.ar    
  14 C14           -2.7386     1.1378     2.8849 C.ar    
  15 C15           -3.2951     2.3940     3.0834 C.ar    
  16 C16           -3.8028     3.1038     2.0064 C.ar    
  17 C17           -3.7564     2.5623     0.7335 C.ar    
  18 C18           -3.1978     1.3135     0.5290 C.ar    
  19 N19           -2.2247     0.4172     3.9718 N.pl3   
  20 C20           -2.6040     0.7528     5.2753 C.ar    
  21 C21           -3.8731     0.4213     5.7395 C.ar    
  22 C22           -4.2438     0.7544     7.0288 C.ar    
  23 C23           -3.3542     1.4169     7.8563 C.ar    
  24 C24           -2.0925     1.7477     7.3968 C.ar    
  25 C25           -1.7131     1.4123     6.1111 C.ar    
  26 I26           -3.9203     1.9205     9.8095 I       
  27 F27           -4.7418    -0.2247     4.9313 F       
  28 F28           -4.3444     4.3262     2.1997 F       
  29 F29           -3.3423     2.9240     4.3251 F       
  30 C30           -5.0977    -4.8120     0.4529 C.3     
  31 H31           -1.7655     0.6292    -2.4665 H       
  32 H32           -3.6507     0.3202    -4.1254 H       
  33 H33           -2.2098    -1.3550     2.0803 H       
  34 H34           -4.1536     3.1181    -0.1029 H       
  35 H35           -3.1589     0.8963    -0.4664 H       
  36 H36           -1.6060    -0.3142     3.8198 H       
  37 H37           -5.2286     0.4978     7.3905 H       
  38 H38           -1.4012     2.2653     8.0452 H       
  39 H39           -0.7258     1.6673     5.7551 H       
  40 H40           -4.2159    -5.4508     0.4027 H       
  41 H41           -5.2017    -4.4151     1.4627 H       
  42 H42           -5.9832    -5.3944     0.1984 H       
@<TRIPOS>BOND
   1    1    2 2
   2    1    5 1
   3    1    6 1
   4    2    3 1
   5    2    9 1
   6    3    4 2
   7    3   31 1
   8    4    5 1
   9    4   32 1
  10    6    7 2
  11    6    8 1
  12    8   30 1
  13    9   10 2
  14    9   11 2
  15    9   12 am
  16   12   13 1
  17   12   33 1
  18   13   14 ar
  19   13   18 ar
  20   14   15 ar
  21   14   19 1
  22   15   16 ar
  23   15   29 1
  24   16   17 ar
  25   16   28 1
  26   17   18 ar
  27   17   34 1
  28   18   35 1
  29   19   20 1
  30   19   36 1
  31   20   21 ar
  32   20   25 ar
  33   21   22 ar
  34   21   27 1
  35   22   23 ar
  36   22   37 1
  37   23   24 ar
  38   23   26 1
  39   24   25 ar
  40   24   38 1
  41   25   39 1
  42   30   40 1
  43   30   41 1
  44   30   42 1

#	End of record

