#	Name: ASD03740041
#	Creating user name:	WinNT
#	Creation time:	15. 06. 2019 20:46

#	Modifying user name:	WinNT
#	Modification time:	15. 06. 2019 20:46

#	Program:	/corina/corina34_cracker 3.40 0067  02.08.2006

@<TRIPOS>MOLECULE
ASD03740041
  32   34    0    0    0
SMALL
NO_CHARGES


@<TRIPOS>ATOM
   1 C1            -0.2005     1.6016     0.6811 C.ar    
   2 C2            -0.0707     0.2306     0.3934 C.ar    
   3 C3            -1.2135    -0.5383     0.1815 C.ar    
   4 C4            -2.4676     0.0615     0.2576 C.ar    
   5 C5            -2.5781     1.4282     0.5452 C.ar    
   6 C6            -1.4605     2.1828     0.7577 C.ar    
   7 N7             1.0845     2.0836     0.8380 N.pl3   
   8 C8             1.9385     1.0348     0.6496 C.2     
   9 N9             1.2589    -0.0522     0.3887 N.2     
  10 C10           -3.6850    -0.7451     0.0340 C.2     
  11 C11           -4.8979    -0.1112    -0.4866 C.2     
  12 O12           -3.6797    -1.9370     0.2826 O.2     
  13 C13           -6.1166    -0.7198    -0.6224 C.2     
  14 C14           -7.0828     0.1093    -1.1379 C.2     
  15 C15           -6.6744     1.3541    -1.4160 C.2     
  16 S16           -5.0247     1.5561    -1.0306 S.3     
  17 N17            3.3186     1.1108     0.7233 N.am    
  18 C18            3.9150     2.2874     0.9994 C.2     
  19 O19            5.2573     2.3613     1.0711 O.3     
  20 O20            3.2412     3.2815     1.1837 O.2     
  21 C21            5.8309     3.6607     1.3725 C.3     
  22 H22           -1.1269    -1.5917    -0.0405 H       
  23 H23           -3.5541     1.8871     0.6023 H       
  24 H24           -1.5555     3.2356     0.9788 H       
  25 H25            1.3340     2.9980     1.0440 H       
  26 H26           -6.2999    -1.7490    -0.3515 H       
  27 H27           -8.0978    -0.2188    -1.3069 H       
  28 H28           -7.3064     2.1283    -1.8254 H       
  29 H29            3.8566     0.3171     0.5762 H       
  30 H30            5.5390     4.3743     0.6019 H       
  31 H31            5.4666     4.0028     2.3412 H       
  32 H32            6.9176     3.5805     1.4006 H       
@<TRIPOS>BOND
   1    1    2 ar
   2    1    7 1
   3    1    6 ar
   4    2    3 ar
   5    2    9 1
   6    3    4 ar
   7    3   22 1
   8    4    5 ar
   9    4   10 1
  10    5    6 ar
  11    5   23 1
  12    6   24 1
  13    7    8 1
  14    7   25 1
  15    8    9 2
  16    8   17 1
  17   10   11 1
  18   10   12 2
  19   11   13 2
  20   11   16 1
  21   13   14 1
  22   13   26 1
  23   14   15 2
  24   14   27 1
  25   15   16 1
  26   15   28 1
  27   17   18 am
  28   17   29 1
  29   18   19 1
  30   18   20 2
  31   19   21 1
  32   21   30 1
  33   21   31 1
  34   21   32 1

#	End of record

