#	Name: ASD01200458
#	Creating user name:	WinNT
#	Creation time:	15. 06. 2019 19:09

#	Modifying user name:	WinNT
#	Modification time:	15. 06. 2019 19:09

#	Program:	/corina/corina34_cracker 3.40 0067  02.08.2006

@<TRIPOS>MOLECULE
ASD01200458
  67   70    0    0    0
SMALL
NO_CHARGES


@<TRIPOS>ATOM
   1 C1            -2.1082     0.8289     0.2214 C.2     
   2 C2            -1.9261    -0.6669     0.2001 C.3     
   3 C3            -0.4867    -0.9999    -0.1975 C.3     
   4 O4            -1.1817     1.5542    -0.0532 O.2     
   5 O5            -3.3011     1.3552     0.5401 O.3     
   6 C6             0.8866    -2.9826    -0.5437 C.2     
   7 C7             1.0653    -4.4501    -0.5647 C.ar    
   8 C8             2.3029    -5.0008    -0.9013 C.ar    
   9 C9             2.4630    -6.3709    -0.9185 C.ar    
  10 C10            1.4000    -7.1987    -0.6035 C.ar    
  11 C11            0.1706    -6.6593    -0.2689 C.ar    
  12 C12           -0.0013    -5.2907    -0.2424 C.ar    
  13 O13            1.8187    -2.2529    -0.8200 O.2     
  14 N14           -0.3096    -2.4540    -0.2183 N.am    
  15 C15            1.5820    -8.6945    -0.6253 C.3     
  16 C16            1.1347    -9.2430    -1.9818 C.3     
  17 C17            1.4349   -10.7417    -2.0500 C.3     
  18 C18            0.9876   -11.2901    -3.4065 C.3     
  19 O19            0.7945    -9.2853     0.4105 O.3     
  20 C20            1.3507   -10.3197     1.0947 C.ar    
  21 C21            2.5776   -10.8332     0.6988 C.ar    
  22 C22            3.1432   -11.8834     1.3936 C.ar    
  23 C23            2.4842   -12.4260     2.4890 C.ar    
  24 C24            1.2563   -11.9116     2.8848 C.ar    
  25 C25            0.6942   -10.8580     2.1924 C.ar    
  26 C26            0.5405   -12.4999     4.0733 C.3     
  27 C27            4.4754   -12.4412     0.9632 C.3     
  28 N28            2.4367   -14.7235     3.4345 N.2     
  29 N29            3.0576   -13.4924     3.1945 N.pl3   
  30 C30            4.2845   -13.4850     3.7396 C.2     
  31 C31            4.4872   -14.7112     4.3457 C.ar    
  32 C32            5.5471   -15.3006     5.0671 C.ar    
  33 C33            5.4129   -16.5656     5.5390 C.ar    
  34 C34            4.2481   -17.3074     5.3303 C.ar    
  35 C35            3.1914   -16.8021     4.6456 C.ar    
  36 C36            3.2598   -15.4923     4.1256 C.ar    
  37 H37           -2.1324    -1.0723     1.1906 H       
  38 H38           -2.6136    -1.1064    -0.5227 H       
  39 H39           -0.2803    -0.5945    -1.1881 H       
  40 H40            0.2008    -0.5604     0.5252 H       
  41 H41           -3.3694     2.3198     0.5404 H       
  42 H42            3.1332    -4.3557    -1.1480 H       
  43 H43            3.4201    -6.7983    -1.1787 H       
  44 H44           -0.6551    -7.3109    -0.0241 H       
  45 H45           -0.9602    -4.8708     0.0232 H       
  46 H46           -1.0534    -3.0363     0.0022 H       
  47 H47            2.6329    -8.9351    -0.4647 H       
  48 H48            0.0638    -9.0810    -2.1040 H       
  49 H49            1.6732    -8.7280    -2.7773 H       
  50 H50            2.5058   -10.9037    -1.9278 H       
  51 H51            0.8964   -11.2567    -1.2544 H       
  52 H52           -0.0834   -11.1281    -3.5287 H       
  53 H53            1.5261   -10.7751    -4.2021 H       
  54 H54            1.2014   -12.3578    -3.4551 H       
  55 H55            3.0898   -10.4113    -0.1533 H       
  56 H56           -0.2585   -10.4550     2.5027 H       
  57 H57            0.9186   -12.0429     4.9878 H       
  58 H58           -0.5286   -12.3067     3.9857 H       
  59 H59            0.7139   -13.5755     4.1061 H       
  60 H60            5.2694   -11.9795     1.5501 H       
  61 H61            4.4862   -13.5195     1.1222 H       
  62 H62            4.6341   -12.2282    -0.0939 H       
  63 H63            4.9885   -12.6665     3.7098 H       
  64 H64            6.4588   -14.7488     5.2422 H       
  65 H65            6.2282   -17.0107     6.0900 H       
  66 H66            4.1870   -18.3111     5.7245 H       
  67 H67            2.3033   -17.3991     4.4993 H       
@<TRIPOS>BOND
   1    1    2 1
   2    1    4 2
   3    1    5 1
   4    2    3 1
   5    2   37 1
   6    2   38 1
   7    3   14 1
   8    3   39 1
   9    3   40 1
  10    5   41 1
  11    6    7 1
  12    6   13 2
  13    6   14 am
  14    7    8 ar
  15    7   12 ar
  16    8    9 ar
  17    8   42 1
  18    9   10 ar
  19    9   43 1
  20   10   11 ar
  21   10   15 1
  22   11   12 ar
  23   11   44 1
  24   12   45 1
  25   14   46 1
  26   15   16 1
  27   15   19 1
  28   15   47 1
  29   16   17 1
  30   16   48 1
  31   16   49 1
  32   17   18 1
  33   17   50 1
  34   17   51 1
  35   18   52 1
  36   18   53 1
  37   18   54 1
  38   19   20 1
  39   20   21 ar
  40   20   25 ar
  41   21   22 ar
  42   21   55 1
  43   22   23 ar
  44   22   27 1
  45   23   24 ar
  46   23   29 1
  47   24   25 ar
  48   24   26 1
  49   25   56 1
  50   26   57 1
  51   26   58 1
  52   26   59 1
  53   27   60 1
  54   27   61 1
  55   27   62 1
  56   28   29 1
  57   28   36 2
  58   29   30 1
  59   30   31 2
  60   30   63 1
  61   31   32 ar
  62   31   36 ar
  63   32   33 ar
  64   32   64 1
  65   33   34 ar
  66   33   65 1
  67   34   35 ar
  68   34   66 1
  69   35   36 ar
  70   35   67 1

#	End of record

