#	Name: ASD03240236
#	Creating user name:	WinNT
#	Creation time:	15. 06. 2019 20:34

#	Modifying user name:	WinNT
#	Modification time:	15. 06. 2019 20:34

#	Program:	/corina/corina34_cracker 3.40 0067  02.08.2006

@<TRIPOS>MOLECULE
ASD03240236
  49   53    0    0    0
SMALL
NO_CHARGES


@<TRIPOS>ATOM
   1 C1            -0.5275     1.9512    -0.6206 C.ar    
   2 C2            -0.6935     0.5689    -0.5760 C.ar    
   3 C3             0.4326    -0.2523    -0.4822 C.ar    
   4 N4             1.6449     0.2564    -0.4352 N.ar    
   5 C5             1.8549     1.5629    -0.4743 C.ar    
   6 C6             0.7735     2.4597    -0.5687 C.ar    
   7 N7             2.9945     2.3426    -0.4418 N.pl3   
   8 C8             2.5947     3.6531    -0.5147 C.2     
   9 N9             1.2867     3.7136    -0.5891 N.2     
  10 C10            3.5001     4.8191    -0.5094 C.ar    
  11 C11            4.3139     1.8810    -0.3513 C.ar    
  12 C12            4.8719     1.1594    -1.3982 C.ar    
  13 C13            6.1733     0.7060    -1.3061 C.ar    
  14 C14            6.9204     0.9700    -0.1728 C.ar    
  15 C15            6.3674     1.6880     0.8717 C.ar    
  16 C16            5.0684     2.1490     0.7832 C.ar    
  17 N17            4.0685     6.9546     0.3393 N.ar    
  18 C18            3.2539     5.9115     0.3382 C.ar    
  19 C19            4.6215     4.8533    -1.3439 C.ar    
  20 C20            5.4394     5.9696    -1.3015 C.ar    
  21 C21            5.1284     7.0091    -0.4443 C.ar    
  22 C22            8.3400     0.4738    -0.0756 C.3     
  23 N23            2.1516     5.8974     1.1776 N.pl3   
  24 N24            9.2522     1.4908    -0.6157 N.3     
  25 C25           -2.0525    -0.0252    -0.6273 C.ar    
  26 C26           -2.2236    -1.4115    -0.5829 C.ar    
  27 C27           -3.5115    -1.9160    -0.6338 C.ar    
  28 C28           -4.5780    -1.0402    -0.7261 C.ar    
  29 N29           -4.3852     0.2639    -0.7662 N.ar    
  30 C30           -3.1785     0.7902    -0.7147 C.ar    
  31 H31           -1.3792     2.6109    -0.6975 H       
  32 H32            0.3057    -1.3242    -0.4472 H       
  33 H33            4.2888     0.9526    -2.2834 H       
  34 H34            6.6078     0.1444    -2.1199 H       
  35 H35            6.9531     1.8919     1.7558 H       
  36 H36            4.6385     2.7135     1.5974 H       
  37 H37            4.8443     4.0289    -2.0051 H       
  38 H38            6.3137     6.0279    -1.9328 H       
  39 H39            5.7673     7.8793    -0.4125 H       
  40 H40            8.5871     0.2819     0.9686 H       
  41 H41            8.4429    -0.4476    -0.6486 H       
  42 H42            1.9273     6.6854     1.6969 H       
  43 H43            1.6042     5.0995     1.2459 H       
  44 H44           10.2112     1.1816    -0.5617 H       
  45 H45            9.0033     1.7333    -1.5629 H       
  46 H46           -1.3725    -2.0725    -0.5111 H       
  47 H47           -3.6818    -2.9820    -0.6022 H       
  48 H48           -5.5843    -1.4303    -0.7664 H       
  49 H49           -3.0610     1.8634    -0.7453 H       
@<TRIPOS>BOND
   1    1    2 ar
   2    1    6 ar
   3    1   31 1
   4    2    3 ar
   5    2   25 1
   6    3    4 ar
   7    3   32 1
   8    4    5 ar
   9    5    7 1
  10    5    6 ar
  11    6    9 1
  12    7    8 1
  13    7   11 1
  14    8    9 2
  15    8   10 1
  16   10   19 ar
  17   10   18 ar
  18   11   12 ar
  19   11   16 ar
  20   12   13 ar
  21   12   33 1
  22   13   14 ar
  23   13   34 1
  24   14   15 ar
  25   14   22 1
  26   15   16 ar
  27   15   35 1
  28   16   36 1
  29   17   18 ar
  30   17   21 ar
  31   18   23 1
  32   19   20 ar
  33   19   37 1
  34   20   21 ar
  35   20   38 1
  36   21   39 1
  37   22   24 1
  38   22   40 1
  39   22   41 1
  40   23   42 1
  41   23   43 1
  42   24   44 1
  43   24   45 1
  44   25   26 ar
  45   25   30 ar
  46   26   27 ar
  47   26   46 1
  48   27   28 ar
  49   27   47 1
  50   28   29 ar
  51   28   48 1
  52   29   30 ar
  53   30   49 1

#	End of record

