#	Name: ASD04880033
#	Creating user name:	WinNT
#	Creation time:	15. 06. 2019 20:52

#	Modifying user name:	WinNT
#	Modification time:	15. 06. 2019 20:52

#	Program:	/corina/corina34_cracker 3.40 0067  02.08.2006

@<TRIPOS>MOLECULE
ASD04880033
  68   72    0    0    0
SMALL
NO_CHARGES


@<TRIPOS>ATOM
   1 C1             0.1034     1.1571     0.0597 C.ar    
   2 C2             0.0422    -0.2313     0.0743 C.ar    
   3 C3            -1.1769    -0.8695     0.1397 C.ar    
   4 C4            -2.3563    -0.1219     0.1917 C.ar    
   5 C5            -2.2975     1.2748     0.1777 C.ar    
   6 C6            -1.0725     1.9111     0.1174 C.ar    
   7 N7            -1.0093     3.3106     0.1031 N.am    
   8 C8            -1.9741     4.0225    -0.5123 C.2     
   9 C9            -1.9764     5.4859    -0.4214 C.2     
  10 O10           -2.8435     3.4506    -1.1437 O.2     
  11 N11            1.3378     1.7980    -0.0065 N.3     
  12 C12            1.4888     2.5202    -1.2774 C.3     
  13 C13            2.4381     0.8432     0.1873 C.3     
  14 C14            3.7701     1.5970     0.1870 C.3     
  15 N15            3.9210     2.3192    -1.0840 N.3     
  16 C16            2.8208     3.2739    -1.2778 C.3     
  17 C17            5.1592     2.9620    -1.1504 C.ar    
  18 C18            6.0556     2.6432    -2.1623 C.ar    
  19 C19            5.4947     3.9260    -0.2078 C.ar    
  20 C20            6.7196     4.5596    -0.2764 C.ar    
  21 C21            7.6120     4.2359    -1.2822 C.ar    
  22 C22            7.2793     3.2808    -2.2250 C.ar    
  23 C23            5.6938     1.6024    -3.1903 C.3     
  24 C24           -3.6617    -0.8057     0.2608 C.2     
  25 O25           -4.6875    -0.1544     0.3061 O.2     
  26 N26           -3.7173    -2.1522     0.2738 N.am    
  27 O27           -1.0761     6.2404     0.2421 O.3     
  28 C28           -2.8869     6.3243    -0.9983 C.2     
  29 C29           -2.5077     7.6310    -0.6532 C.2     
  30 C30           -1.3942     7.5344     0.1064 C.2     
  31 C31           -5.0137    -2.8312     0.3425 C.3     
  32 C32           -4.7967    -4.3458     0.3434 C.3     
  33 C33           -6.1506    -5.0548     0.4151 C.3     
  34 C34           -5.9369    -6.5466     0.4160 C.2     
  35 N35           -5.7724    -7.3244     1.4862 N.2     
  36 N36           -5.6202    -8.5336     1.0634 N.2     
  37 N37           -5.6841    -8.5329    -0.2229 N.pl3   
  38 N38           -5.8829    -7.3279    -0.6346 N.2     
  39 H39            0.9525    -0.8111     0.0338 H       
  40 H40           -1.2211    -1.9485     0.1505 H       
  41 H41           -3.2075     1.8552     0.2178 H       
  42 H42           -0.2711     3.7672     0.5362 H       
  43 H43            1.4729     1.8094    -2.1037 H       
  44 H44            0.6694     3.2298    -1.3920 H       
  45 H45            2.3107     0.3302     1.1405 H       
  46 H46            2.4330     0.1134    -0.6223 H       
  47 H47            3.7859     2.3077     1.0132 H       
  48 H48            4.5895     0.8874     0.3015 H       
  49 H49            2.9481     3.7869    -2.2310 H       
  50 H50            2.8259     4.0038    -0.4682 H       
  51 H51            4.7980     4.1797     0.5775 H       
  52 H52            6.9810     5.3090     0.4560 H       
  53 H53            8.5692     4.7335    -1.3340 H       
  54 H54            7.9784     3.0304    -3.0091 H       
  55 H55            5.1951     2.0817    -4.0327 H       
  56 H56            6.5993     1.1057    -3.5388 H       
  57 H57            5.0252     0.8669    -2.7429 H       
  58 H58           -2.8990    -2.6718     0.2378 H       
  59 H59           -3.7346     6.0376    -1.6030 H       
  60 H60           -3.0094     8.5423    -0.9431 H       
  61 H61           -0.8508     8.3639     0.5341 H       
  62 H62           -5.5297    -2.5375     1.2565 H       
  63 H63           -5.6167    -2.5511    -0.5212 H       
  64 H64           -4.2807    -4.6394    -0.5707 H       
  65 H65           -4.1937    -4.6259     1.2071 H       
  66 H66           -6.6666    -4.7612     1.3292 H       
  67 H67           -6.7536    -4.7747    -0.4486 H       
  68 H68           -5.6000    -9.3148    -0.7907 H       
@<TRIPOS>BOND
   1    1    2 ar
   2    1   11 1
   3    1    6 ar
   4    2    3 ar
   5    2   39 1
   6    3    4 ar
   7    3   40 1
   8    4    5 ar
   9    4   24 1
  10    5    6 ar
  11    5   41 1
  12    6    7 1
  13    7    8 am
  14    7   42 1
  15    8    9 1
  16    8   10 2
  17    9   27 1
  18    9   28 2
  19   11   12 1
  20   11   13 1
  21   12   16 1
  22   12   43 1
  23   12   44 1
  24   13   14 1
  25   13   45 1
  26   13   46 1
  27   14   15 1
  28   14   47 1
  29   14   48 1
  30   15   16 1
  31   15   17 1
  32   16   49 1
  33   16   50 1
  34   17   18 ar
  35   17   19 ar
  36   18   23 1
  37   18   22 ar
  38   19   20 ar
  39   19   51 1
  40   20   21 ar
  41   20   52 1
  42   21   22 ar
  43   21   53 1
  44   22   54 1
  45   23   55 1
  46   23   56 1
  47   23   57 1
  48   24   25 2
  49   24   26 am
  50   26   31 1
  51   26   58 1
  52   27   30 1
  53   28   29 1
  54   28   59 1
  55   29   30 2
  56   29   60 1
  57   30   61 1
  58   31   32 1
  59   31   62 1
  60   31   63 1
  61   32   33 1
  62   32   64 1
  63   32   65 1
  64   33   34 1
  65   33   66 1
  66   33   67 1
  67   34   35 1
  68   34   38 2
  69   35   36 2
  70   36   37 1
  71   37   38 1
  72   37   68 1

#	End of record

