#	Name: ASD02198842
#	Creating user name:	WinNT
#	Creation time:	15. 06. 2019 20:20

#	Modifying user name:	WinNT
#	Modification time:	15. 06. 2019 20:20

#	Program:	/corina/corina34_cracker 3.40 0067  02.08.2006

@<TRIPOS>MOLECULE
ASD02198842
  54   58    0    0    0
SMALL
NO_CHARGES


@<TRIPOS>ATOM
   1 C1            -0.0433     1.5020    -0.1148 C.2     
   2 C2            -0.0731     0.1622     0.0977 C.2     
   3 N3             1.0711    -0.5394     0.2600 N.pl3   
   4 N4             2.2356    -0.0046     0.2260 N.2     
   5 C5             2.4070     1.2850     0.0277 C.2     
   6 C6             1.2214     2.1360    -0.1603 C.2     
   7 C7             0.9795    -1.9186     0.4766 C.ar    
   8 C8             1.5814    -2.4906     1.5968 C.ar    
   9 C9             1.4890    -3.8560     1.8082 C.ar    
  10 C10            0.7978    -4.6520     0.9051 C.ar    
  11 C11            0.1987    -4.0798    -0.2107 C.ar    
  12 C12            0.2843    -2.7185    -0.4209 C.ar    
  13 C13            3.7639     1.8674    -0.0051 C.2     
  14 N14            4.3057     2.6075    -1.0182 N.pl3   
  15 N15            5.6078     2.9588    -0.6407 N.2     
  16 C16            5.8519     2.4590     0.5445 C.2     
  17 C17            4.7198     1.7719     0.9825 C.2     
  18 C18            3.6724     2.9525    -2.2189 C.ar    
  19 C19            3.8063     4.2357    -2.7323 C.ar    
  20 C20            3.1807     4.5735    -3.9167 C.ar    
  21 C21            2.4213     3.6358    -4.5912 C.ar    
  22 C22            2.2851     2.3557    -4.0823 C.ar    
  23 C23            2.9141     2.0102    -2.9012 C.ar    
  24 O24            1.3243     3.3392    -0.3482 O.2     
  25 N25            0.7046    -6.0320     1.1182 N.am    
  26 C26            0.0058    -6.9872     0.2447 C.3     
  27 C27            0.2176    -8.3449     0.9418 C.3     
  28 O28            1.0053    -8.0160     2.1226 O.3     
  29 C29            1.2423    -6.6996     2.1482 C.2     
  30 Cl30           1.3300     1.1814    -4.9322 Cl      
  31 O31            1.8799    -6.1576     3.0293 O.2     
  32 O32            2.2580    -1.7094     2.4794 O.3     
  33 C33            2.8491    -2.3634     3.6040 C.3     
  34 C34            7.1408     2.6067     1.3112 C.3     
  35 H35           -0.9547     2.0656    -0.2493 H       
  36 H36           -1.0229    -0.3503     0.1381 H       
  37 H37            1.9547    -4.3014     2.6750 H       
  38 H38           -0.3383    -4.7009    -0.9123 H       
  39 H39           -0.1821    -2.2762    -1.2888 H       
  40 H40            4.6141     1.2524     1.9235 H       
  41 H41            4.3988     4.9692    -2.2058 H       
  42 H42            3.2848     5.5715    -4.3160 H       
  43 H43            1.9329     3.9026    -5.5168 H       
  44 H44            2.8080     1.0114    -2.5042 H       
  45 H45           -1.0561    -6.7476     0.1875 H       
  46 H46            0.4519    -6.9937    -0.7498 H       
  47 H47           -0.7394    -8.7800     1.2299 H       
  48 H48            0.7681    -9.0259     0.2928 H       
  49 H49            3.3570    -1.6271     4.2269 H       
  50 H50            2.0719    -2.8580     4.1866 H       
  51 H51            3.5694    -3.1040     3.2564 H       
  52 H52            7.0936     3.5011     1.9324 H       
  53 H53            7.2891     1.7320     1.9445 H       
  54 H54            7.9719     2.6937     0.6114 H       
@<TRIPOS>BOND
   1    1    2 2
   2    1    6 1
   3    1   35 1
   4    2    3 1
   5    2   36 1
   6    3    4 1
   7    3    7 1
   8    4    5 2
   9    5    6 1
  10    5   13 1
  11    6   24 2
  12    7    8 ar
  13    7   12 ar
  14    8    9 ar
  15    8   32 1
  16    9   10 ar
  17    9   37 1
  18   10   11 ar
  19   10   25 1
  20   11   12 ar
  21   11   38 1
  22   12   39 1
  23   13   14 1
  24   13   17 2
  25   14   15 1
  26   14   18 1
  27   15   16 2
  28   16   17 1
  29   16   34 1
  30   17   40 1
  31   18   19 ar
  32   18   23 ar
  33   19   20 ar
  34   19   41 1
  35   20   21 ar
  36   20   42 1
  37   21   22 ar
  38   21   43 1
  39   22   23 ar
  40   22   30 1
  41   23   44 1
  42   25   26 1
  43   25   29 am
  44   26   27 1
  45   26   45 1
  46   26   46 1
  47   27   28 1
  48   27   47 1
  49   27   48 1
  50   28   29 1
  51   29   31 2
  52   32   33 1
  53   33   49 1
  54   33   50 1
  55   33   51 1
  56   34   52 1
  57   34   53 1
  58   34   54 1

#	End of record

