#	Name: ASD01914089
#	Creating user name:	WinNT
#	Creation time:	15. 06. 2019 20:02

#	Modifying user name:	WinNT
#	Modification time:	15. 06. 2019 20:02

#	Program:	/corina/corina34_cracker 3.40 0067  02.08.2006

@<TRIPOS>MOLECULE
ASD01914089
  46   49    0    0    0
SMALL
NO_CHARGES


@<TRIPOS>ATOM
   1 C1            -0.0167     1.3783     0.0096 C.ar    
   2 C2             0.0021    -0.0041     0.0020 C.ar    
   3 C3             2.3997     0.0285    -0.0208 C.ar    
   4 C4             2.3807     1.4151    -0.0136 C.ar    
   5 O5             3.5853    -0.6355    -0.0366 O.3     
   6 C6             1.2066    -0.6801    -0.0132 C.ar    
   7 C7             1.1719     2.0887     0.0021 C.ar    
   8 F8             1.1515     3.4395     0.0091 F       
   9 C9             3.5291    -2.0634    -0.0433 C.3     
  10 C10            4.9290    -2.6212    -0.0608 C.ar    
  11 N11            5.1065    -3.9284    -0.0693 N.ar    
  12 C12            6.3081    -4.4671    -0.0847 C.ar    
  13 C13            7.4469    -3.6610    -0.0921 C.ar    
  14 C14            7.2907    -2.2696    -0.0834 C.ar    
  15 C15            6.0069    -1.7539    -0.0734 C.ar    
  16 C16            8.7958    -4.2659    -0.1084 C.2     
  17 N17            8.9331    -5.6066    -0.1162 N.am    
  18 O18            9.7811    -3.5540    -0.1147 O.2     
  19 C19           10.2698    -6.2060    -0.1323 C.3     
  20 C20           10.8125    -6.3516     1.3078 C.3     
  21 C21           11.0242    -7.8849     1.4961 C.3     
  22 C22           12.2392    -8.2266     0.5805 C.3     
  23 C23           11.6965    -8.0810    -0.8596 C.3     
  24 C24           10.2047    -7.6650    -0.6784 C.3     
  25 C25            9.8419    -8.4493     0.6318 C.3     
  26 H26           -0.9596     1.9048     0.0170 H       
  27 H27           -0.9262    -0.5561     0.0083 H       
  28 H28            3.3080     1.9685    -0.0198 H       
  29 H29            1.2198    -1.7600    -0.0187 H       
  30 H30            3.0107    -2.4108     0.8505 H       
  31 H31            2.9920    -2.4018    -0.9294 H       
  32 H32            6.4130    -5.5419    -0.0912 H       
  33 H33            8.1502    -1.6156    -0.0888 H       
  34 H34            5.8479    -0.6857    -0.0666 H       
  35 H35            8.1469    -6.1747    -0.1111 H       
  36 H36           10.9487    -5.6027    -0.7350 H       
  37 H37           11.7592    -5.8216     1.4125 H       
  38 H38           10.0848    -5.9773     2.0278 H       
  39 H39           11.0912    -8.2337     2.5266 H       
  40 H40           13.0541    -7.5234     0.7524 H       
  41 H41           12.5740    -9.2485     0.7589 H       
  42 H42           12.2446    -7.3062    -1.3956 H       
  43 H43           11.7645    -9.0312    -1.3891 H       
  44 H44            9.5580    -7.8223    -1.5417 H       
  45 H45            9.9140    -9.5284     0.4955 H       
  46 H46            8.8697    -8.1560     1.0278 H       
@<TRIPOS>BOND
   1    1    2 ar
   2    1    7 ar
   3    1   26 1
   4    2    6 ar
   5    2   27 1
   6    3    4 ar
   7    3    5 1
   8    3    6 ar
   9    4    7 ar
  10    4   28 1
  11    5    9 1
  12    6   29 1
  13    7    8 1
  14    9   10 1
  15    9   30 1
  16    9   31 1
  17   10   11 ar
  18   10   15 ar
  19   11   12 ar
  20   12   13 ar
  21   12   32 1
  22   13   14 ar
  23   13   16 1
  24   14   15 ar
  25   14   33 1
  26   15   34 1
  27   16   17 am
  28   16   18 2
  29   17   19 1
  30   17   35 1
  31   19   20 1
  32   19   24 1
  33   19   36 1
  34   20   21 1
  35   20   37 1
  36   20   38 1
  37   21   22 1
  38   21   25 1
  39   21   39 1
  40   22   23 1
  41   22   40 1
  42   22   41 1
  43   23   24 1
  44   23   42 1
  45   23   43 1
  46   24   25 1
  47   24   44 1
  48   25   45 1
  49   25   46 1

#	End of record

