#	Name: ASD03320192
#	Creating user name:	WinNT
#	Creation time:	15. 06. 2019 20:36

#	Modifying user name:	WinNT
#	Modification time:	15. 06. 2019 20:36

#	Program:	/corina/corina34_cracker 3.40 0067  02.08.2006

@<TRIPOS>MOLECULE
ASD03320192
  48   51    0    0    0
SMALL
NO_CHARGES


@<TRIPOS>ATOM
   1 C1             0.0191     1.1552     0.1984 C.ar    
   2 C2             0.1239    -0.2333     0.0994 C.ar    
   3 N3            -0.9479    -0.9810    -0.0658 N.ar    
   4 C4            -2.1566    -0.4620    -0.1443 C.ar    
   5 C5            -2.3519     0.9158    -0.0546 C.ar    
   6 C6            -1.2462     1.7464     0.1260 C.ar    
   7 C7             1.2267     1.9875     0.3832 C.2     
   8 O8             1.1249     3.1960     0.4683 O.2     
   9 N9             2.4406     1.4067     0.4573 N.am    
  10 C10            3.5924     2.1992     0.5373 C.ar    
  11 C11           -3.7176     1.4897    -0.1443 C.ar    
  12 C12            3.5636     3.3975     1.2384 C.ar    
  13 C13            4.6997     4.1785     1.3169 C.ar    
  14 C14            5.8694     3.7665     0.6952 C.ar    
  15 C15            5.8989     2.5695    -0.0054 C.ar    
  16 C16            4.7653     1.7844    -0.0795 C.ar    
  17 O17            6.9874     4.5364     0.7722 O.3     
  18 C18            8.1563     4.0512     0.1086 C.3     
  19 F19            7.8914     3.9085    -1.2577 F       
  20 F20            9.2052     4.9594     0.2879 F       
  21 F21            8.5165     2.8107     0.6458 F       
  22 C22           -4.7156     1.1119     0.7572 C.ar    
  23 N23           -5.9187     1.6475     0.6416 N.ar    
  24 C24           -6.1817     2.5251    -0.3063 C.ar    
  25 N25           -5.2693     2.9084    -1.1772 N.ar    
  26 C26           -4.0390     2.4270    -1.1291 C.ar    
  27 C27           -3.3443    -1.3700    -0.3341 C.3     
  28 C28           -4.2046    -0.9590    -1.4556 C.1     
  29 N29           -4.8685    -0.6418    -2.3211 N.1     
  30 C30           -2.9808    -2.8641    -0.3520 C.3     
  31 C31           -4.2569    -3.1039     0.4721 C.3     
  32 C32           -4.1180    -1.6519     0.9647 C.3     
  33 H33            1.0959    -0.7002     0.1586 H       
  34 H34           -1.3631     2.8176     0.1993 H       
  35 H35            2.5165     0.4396     0.4551 H       
  36 H36            2.6529     3.7188     1.7219 H       
  37 H37            4.6775     5.1105     1.8622 H       
  38 H38            6.8098     2.2495    -0.4894 H       
  39 H39            4.7884     0.8526    -0.6249 H       
  40 H40           -4.5077     0.3932     1.5361 H       
  41 H41           -7.1755     2.9427    -0.3717 H       
  42 H42           -3.2968     2.7457    -1.8460 H       
  43 H43           -3.0131    -3.3095    -1.3463 H       
  44 H44           -2.0626    -3.0966     0.1874 H       
  45 H45           -5.1446    -3.2738    -0.1372 H       
  46 H46           -4.1345    -3.8469     1.2602 H       
  47 H47           -3.5107    -1.5522     1.8643 H       
  48 H48           -5.0677    -1.1212     1.0329 H       
@<TRIPOS>BOND
   1    1    2 ar
   2    1    7 1
   3    1    6 ar
   4    2    3 ar
   5    2   33 1
   6    3    4 ar
   7    4    5 ar
   8    4   27 1
   9    5    6 ar
  10    5   11 1
  11    6   34 1
  12    7    8 2
  13    7    9 am
  14    9   10 1
  15    9   35 1
  16   10   12 ar
  17   10   16 ar
  18   11   22 ar
  19   11   26 ar
  20   12   13 ar
  21   12   36 1
  22   13   14 ar
  23   13   37 1
  24   14   15 ar
  25   14   17 1
  26   15   16 ar
  27   15   38 1
  28   16   39 1
  29   17   18 1
  30   18   19 1
  31   18   20 1
  32   18   21 1
  33   22   23 ar
  34   22   40 1
  35   23   24 ar
  36   24   25 ar
  37   24   41 1
  38   25   26 ar
  39   26   42 1
  40   27   28 1
  41   27   30 1
  42   27   32 1
  43   28   29 3
  44   30   31 1
  45   30   43 1
  46   30   44 1
  47   31   32 1
  48   31   45 1
  49   31   46 1
  50   32   47 1
  51   32   48 1

#	End of record

