#	Name: ASD00431060
#	Creating user name:	WinNT
#	Creation time:	15. 06. 2019 18:35

#	Modifying user name:	WinNT
#	Modification time:	15. 06. 2019 18:35

#	Program:	/corina/corina34_cracker 3.40 0067  02.08.2006

@<TRIPOS>MOLECULE
ASD00431060
  50   53    0    0    0
SMALL
NO_CHARGES


@<TRIPOS>ATOM
   1 C1            -0.0162     1.3418     0.0094 C.2     
   2 C2             0.0021    -0.0041     0.0020 C.2     
   3 C3            -1.4486    -0.4434     0.0141 C.3     
   4 C4            -2.2138     0.8650     0.0287 C.2     
   5 N5            -1.2848     1.8397     0.0301 N.am    
   6 O6            -3.4181     1.0053     0.0414 O.2     
   7 C7            -1.7788    -1.2467    -1.2455 C.3     
   8 C8            -3.1875    -1.7736    -1.1504 C.2     
   9 N9            -3.6988    -2.5150    -2.1531 N.am    
  10 O10           -3.8611    -1.5305    -0.1713 O.2     
  11 C11           -5.0050    -3.0035    -2.0648 C.2     
  12 S12           -6.0997    -2.7354    -0.7146 S.3     
  13 C13           -5.6188    -3.7441    -2.9991 C.2     
  14 C14           -6.9170    -4.1113    -2.6872 C.2     
  15 C15           -7.3588    -3.6718    -1.5087 C.2     
  16 C16           -1.6012     3.2700     0.0428 C.3     
  17 C17           -1.7013     3.7498     1.4679 C.ar    
  18 C18           -0.5773     4.2281     2.1151 C.ar    
  19 C19           -0.6670     4.6700     3.4251 C.ar    
  20 C20           -1.8917     4.6309     4.0870 C.ar    
  21 C21           -3.0139     4.1499     3.4322 C.ar    
  22 C22           -2.9182     3.7159     2.1232 C.ar    
  23 O23            0.2722     5.1787     4.2751 O.3     
  24 C24           -0.4701     5.8296     5.3232 C.3     
  25 O25           -1.7199     5.1151     5.3517 O.3     
  26 C26            1.1442    -0.8396    -0.0142 C.2     
  27 O27            2.2573    -0.3483    -0.0226 O.2     
  28 O28            0.9987    -2.1811    -0.0204 O.3     
  29 C29            2.1945    -2.9632    -0.0369 C.3     
  30 C30            1.2231     2.1991     0.0022 C.3     
  31 H31           -1.6660    -1.0253     0.9097 H       
  32 H32           -1.6900    -0.6030    -2.1206 H       
  33 H33           -1.0840    -2.0816    -1.3365 H       
  34 H34           -3.1601    -2.7094    -2.9360 H       
  35 H35           -5.1383    -4.0314    -3.9227 H       
  36 H36           -7.5267    -4.7075    -3.3499 H       
  37 H37           -8.3419    -3.8609    -1.1036 H       
  38 H38           -0.8137     3.8209    -0.4716 H       
  39 H39           -2.5517     3.4364    -0.4642 H       
  40 H40            0.3712     4.2569     1.5995 H       
  41 H41           -3.9650     4.1185     3.9430 H       
  42 H42           -3.7940     3.3416     1.6142 H       
  43 H43            0.0485     5.7325     6.2769 H       
  44 H44           -0.6347     6.8795     5.0807 H       
  45 H45            2.7888    -2.7371     0.8485 H       
  46 H46            1.9361    -4.0221    -0.0403 H       
  47 H47            2.7709    -2.7270    -0.9314 H       
  48 H48            1.5121     2.4114    -1.0272 H       
  49 H49            1.0206     3.1350     0.5230 H       
  50 H50            2.0331     1.6712     0.5055 H       
@<TRIPOS>BOND
   1    1    2 2
   2    1   30 1
   3    1    5 1
   4    2    3 1
   5    2   26 1
   6    3    4 1
   7    3    7 1
   8    3   31 1
   9    4    5 am
  10    4    6 2
  11    5   16 1
  12    7    8 1
  13    7   32 1
  14    7   33 1
  15    8    9 am
  16    8   10 2
  17    9   11 1
  18    9   34 1
  19   11   12 1
  20   11   13 2
  21   12   15 1
  22   13   14 1
  23   13   35 1
  24   14   15 2
  25   14   36 1
  26   15   37 1
  27   16   17 1
  28   16   38 1
  29   16   39 1
  30   17   18 ar
  31   17   22 ar
  32   18   19 ar
  33   18   40 1
  34   19   20 ar
  35   19   23 1
  36   20   21 ar
  37   20   25 1
  38   21   22 ar
  39   21   41 1
  40   22   42 1
  41   23   24 1
  42   24   25 1
  43   24   43 1
  44   24   44 1
  45   26   27 2
  46   26   28 1
  47   28   29 1
  48   29   45 1
  49   29   46 1
  50   29   47 1
  51   30   48 1
  52   30   49 1
  53   30   50 1

#	End of record

