#	Name: ASD02030396
#	Creating user name:	WinNT
#	Creation time:	15. 06. 2019 20:15

#	Modifying user name:	WinNT
#	Modification time:	15. 06. 2019 20:15

#	Program:	/corina/corina34_cracker 3.40 0067  02.08.2006

@<TRIPOS>MOLECULE
ASD02030396
  22   22    0    0    0
SMALL
NO_CHARGES


@<TRIPOS>ATOM
   1 C1            -0.0167     1.3793     0.0096 C.ar    
   2 C2             0.0021    -0.0041     0.0020 C.ar    
   3 C3             1.2082    -0.6785    -0.0131 C.ar    
   4 C4             2.3961     0.0291    -0.0207 C.ar    
   5 C5             2.3778     1.4111    -0.0131 C.ar    
   6 C6             1.1718     2.0866     0.0021 C.ar    
   7 C7             1.2288    -2.1853    -0.0209 C.3     
   8 C8             1.4724    -2.6847    -1.4465 C.3     
   9 O9             2.2756    -2.6518     0.8326 O.3     
  10 C10            2.0104    -3.9183     1.4389 C.3     
  11 Br11          -1.6668     2.3027     0.0225 Br      
  12 H12           -0.9257    -0.5568     0.0083 H       
  13 H13            3.3385    -0.4983    -0.0321 H       
  14 H14            3.3059     1.9634    -0.0186 H       
  15 H15            1.1576     3.1665     0.0077 H       
  16 H16            0.2716    -2.5636     0.3380 H       
  17 H17            1.4873    -3.7746    -1.4521 H       
  18 H18            0.6739    -2.3288    -2.0975 H       
  19 H19            2.4295    -2.3064    -1.8054 H       
  20 H20            1.1076    -3.8487     2.0457 H       
  21 H21            1.8692    -4.6703     0.6625 H       
  22 H22            2.8519    -4.2021     2.0708 H       
@<TRIPOS>BOND
   1    1    2 ar
   2    1    6 ar
   3    1   11 1
   4    2    3 ar
   5    2   12 1
   6    3    4 ar
   7    3    7 1
   8    4    5 ar
   9    4   13 1
  10    5    6 ar
  11    5   14 1
  12    6   15 1
  13    7    8 1
  14    7    9 1
  15    7   16 1
  16    8   17 1
  17    8   18 1
  18    8   19 1
  19    9   10 1
  20   10   20 1
  21   10   21 1
  22   10   22 1

#	End of record

