#	Name: ASD04880277
#	Creating user name:	WinNT
#	Creation time:	15. 06. 2019 20:53

#	Modifying user name:	WinNT
#	Modification time:	15. 06. 2019 20:53

#	Program:	/corina/corina34_cracker 3.40 0067  02.08.2006

@<TRIPOS>MOLECULE
ASD04880277
  48   52    0    0    0
SMALL
NO_CHARGES


@<TRIPOS>ATOM
   1 C1            -0.0121     1.4644     0.0385 C.3     
   2 N2             0.0038    -0.0070     0.0403 N.am    
   3 N3             1.3265    -0.4434     0.0809 N.2     
   4 C4             2.1946     0.5096     0.1063 C.2     
   5 C5             1.4816     1.8427     0.0834 C.3     
   6 C6            -1.0835    -0.8028     0.0088 C.2     
   7 C7            -0.9246    -2.2647    -0.1121 C.ar    
   8 O8            -2.1957    -0.3158     0.0799 O.2     
   9 C9             0.3400    -2.8158    -0.3383 C.ar    
  10 C10            0.4844    -4.1844    -0.4508 C.ar    
  11 C11           -0.6318    -5.0152    -0.3387 C.ar    
  12 C12           -1.8870    -4.4668    -0.1136 C.ar    
  13 C13           -2.0366    -3.1020     0.0050 C.ar    
  14 C14            3.6553     0.3276     0.1508 C.ar    
  15 C15            4.1994    -0.9612     0.1679 C.ar    
  16 C16            5.5538    -1.1301     0.2092 C.ar    
  17 C17            6.3976    -0.0139     0.2338 C.ar    
  18 C18            5.8531     1.2752     0.2161 C.ar    
  19 C19            4.4989     1.4436     0.1700 C.ar    
  20 C20            7.8179    -0.1908     0.2775 C.1     
  21 C21            8.9824    -0.3358     0.3133 C.1     
  22 C22           10.4028    -0.5127     0.3571 C.ar    
  23 C23           11.2486     0.5997     0.3817 C.ar    
  24 C24           10.9499    -1.7986     0.3811 C.ar    
  25 C25           12.3187    -1.9611     0.4237 C.ar    
  26 C26           13.1500    -0.8549     0.4430 C.ar    
  27 C27           12.6155     0.4214     0.4243 C.ar    
  28 O28           -0.2270    -6.3090    -0.4859 O.3     
  29 C29            1.1977    -6.2931    -0.2795 C.3     
  30 O30            1.5856    -4.9620    -0.6675 O.3     
  31 H31           -0.4761     1.8418    -0.8728 H       
  32 H32           -0.5304     1.8434     0.9193 H       
  33 H33            1.7593     2.4096    -0.8051 H       
  34 H34            1.7050     2.4112     0.9862 H       
  35 H35            1.2027    -2.1720    -0.4253 H       
  36 H36           -2.7487    -5.1122    -0.0272 H       
  37 H37           -3.0148    -2.6792     0.1805 H       
  38 H38            3.5482    -1.8226     0.1489 H       
  39 H39            5.9738    -2.1250     0.2231 H       
  40 H40            6.5042     2.1367     0.2351 H       
  41 H41            4.0787     2.4384     0.1560 H       
  42 H42           10.8328     1.5964     0.3672 H       
  43 H43           10.3023    -2.6628     0.3667 H       
  44 H44           12.7430    -2.9541     0.4423 H       
  45 H45           14.2212    -0.9883     0.4767 H       
  46 H46           13.2704     1.2800     0.4396 H       
  47 H47            1.4346    -6.4705     0.7695 H       
  48 H48            1.6847    -7.0340    -0.9137 H       
@<TRIPOS>BOND
   1    1    2 1
   2    1    5 1
   3    1   31 1
   4    1   32 1
   5    2    3 1
   6    2    6 am
   7    3    4 2
   8    4    5 1
   9    4   14 1
  10    5   33 1
  11    5   34 1
  12    6    7 1
  13    6    8 2
  14    7    9 ar
  15    7   13 ar
  16    9   10 ar
  17    9   35 1
  18   10   11 ar
  19   10   30 1
  20   11   12 ar
  21   11   28 1
  22   12   13 ar
  23   12   36 1
  24   13   37 1
  25   14   15 ar
  26   14   19 ar
  27   15   16 ar
  28   15   38 1
  29   16   17 ar
  30   16   39 1
  31   17   18 ar
  32   17   20 1
  33   18   19 ar
  34   18   40 1
  35   19   41 1
  36   20   21 3
  37   21   22 1
  38   22   23 ar
  39   22   24 ar
  40   23   27 ar
  41   23   42 1
  42   24   25 ar
  43   24   43 1
  44   25   26 ar
  45   25   44 1
  46   26   27 ar
  47   26   45 1
  48   27   46 1
  49   28   29 1
  50   29   30 1
  51   29   47 1
  52   29   48 1

#	End of record

