#	Name: ASD01810148
#	Creating user name:	WinNT
#	Creation time:	15. 06. 2019 19:23

#	Modifying user name:	WinNT
#	Modification time:	15. 06. 2019 19:23

#	Program:	/corina/corina34_cracker 3.40 0067  02.08.2006

@<TRIPOS>MOLECULE
ASD01810148
  34   36    0    0    0
SMALL
NO_CHARGES


@<TRIPOS>ATOM
   1 C1             1.4346     1.3796    -2.9339 C.ar    
   2 C2             1.4045    -0.0057    -2.8855 C.ar    
   3 C3             2.1327    -0.6944    -1.9369 C.ar    
   4 C4             2.9101     0.0027    -1.0138 C.ar    
   5 C5             2.9400     1.4068    -1.0644 C.ar    
   6 C6             2.1974     2.0913    -2.0299 C.ar    
   7 N7             3.6417    -0.6745    -0.0610 N.pl3   
   8 C8             4.4025    -0.0511     0.8476 C.2     
   9 C9             4.5111     1.3241     0.8968 C.2     
  10 C10            3.7659     2.1319    -0.0827 C.2     
  11 O11            3.8285     3.3489    -0.0810 O.2     
  12 C12            5.3565     1.9709     1.9099 C.2     
  13 O13            5.4545     3.3149     1.9478 O.3     
  14 O14            5.9675     1.2940     2.7139 O.2     
  15 C15            3.5837    -2.1382    -0.0416 C.3     
  16 C16            4.4016    -2.6581     1.1124 C.ar    
  17 C17            3.8274    -2.7883     2.3652 C.ar    
  18 C18            4.5800    -3.2661     3.4248 C.ar    
  19 C19            5.9038    -3.6130     3.2320 C.ar    
  20 C20            6.4783    -3.4830     1.9817 C.ar    
  21 C21            5.7259    -3.0112     0.9191 C.ar    
  22 F22            6.2876    -2.8848    -0.3031 F       
  23 F23            2.5335    -2.4489     2.5541 F       
  24 F24            2.2263     3.4411    -2.0789 F       
  25 F25            2.0917    -2.0444    -1.9028 F       
  26 H26            0.8623     1.9039    -3.6849 H       
  27 H27            0.8041    -0.5519    -3.5980 H       
  28 H28            4.9491    -0.6439     1.5660 H       
  29 H29            6.0226     3.6946     2.6320 H       
  30 H30            2.5484    -2.4593     0.0730 H       
  31 H31            3.9842    -2.5301    -0.9765 H       
  32 H32            4.1323    -3.3674     4.4024 H       
  33 H33            6.4900    -3.9856     4.0590 H       
  34 H34            7.5131    -3.7537     1.8323 H       
@<TRIPOS>BOND
   1    1    2 ar
   2    1    6 ar
   3    1   26 1
   4    2    3 ar
   5    2   27 1
   6    3    4 ar
   7    3   25 1
   8    4    5 ar
   9    4    7 1
  10    5    6 ar
  11    5   10 1
  12    6   24 1
  13    7    8 1
  14    7   15 1
  15    8    9 2
  16    8   28 1
  17    9   10 1
  18    9   12 1
  19   10   11 2
  20   12   13 1
  21   12   14 2
  22   13   29 1
  23   15   16 1
  24   15   30 1
  25   15   31 1
  26   16   17 ar
  27   16   21 ar
  28   17   18 ar
  29   17   23 1
  30   18   19 ar
  31   18   32 1
  32   19   20 ar
  33   19   33 1
  34   20   21 ar
  35   20   34 1
  36   21   22 1

#	End of record

