#	Name: ASD01410700
#	Creating user name:	WinNT
#	Creation time:	15. 06. 2019 19:18

#	Modifying user name:	WinNT
#	Modification time:	15. 06. 2019 19:18

#	Program:	/corina/corina34_cracker 3.40 0067  02.08.2006

@<TRIPOS>MOLECULE
ASD01410700
  83   89    0    0    0
SMALL
NO_CHARGES


@<TRIPOS>ATOM
   1 N1            -0.0204     1.6524     0.0111 N.am    
   2 S2             0.0021    -0.0041     0.0020 S.o2    
   3 O3            -0.8977    -0.4287    -1.0045 O.2     
   4 N4             1.5383    -0.4717    -0.4441 N.am    
   5 O5            -0.1504    -0.4027     1.3660 O.2     
   6 C6             1.9617    -0.3438    -1.7084 C.2     
   7 O7             3.1614    -0.6158    -1.8480 O.2     
   8 C8             1.3049     0.0171    -2.9541 C.ar    
   9 C9             2.0894     0.7519    -3.8678 C.ar    
  10 C10            1.5944     1.2547    -5.0318 C.ar    
  11 C11            0.2351     1.0219    -5.2877 C.ar    
  12 C12           -0.5277     0.1640    -4.4582 C.ar    
  13 C13            0.0133    -0.3824    -3.2999 C.ar    
  14 C14           -0.6310     1.5345    -6.2673 C.2     
  15 C15           -1.8584     0.9845    -6.0708 C.2     
  16 N16           -1.7759     0.0924    -5.0142 N.pl3   
  17 C17           -0.2198     2.5424    -7.3127 C.3     
  18 C18            0.2677     3.8197    -6.6258 C.3     
  19 C19            0.9083     1.9601    -8.1667 C.3     
  20 C20            1.3251     2.9819    -9.2265 C.3     
  21 C21            1.8126     4.2592    -8.5396 C.3     
  22 C22            0.6845     4.8414    -7.6856 C.3     
  23 C23           -3.0904     1.3121    -6.8102 C.ar    
  24 C24           -4.3484     1.3552    -6.1984 C.ar    
  25 C25           -4.6006     0.9383    -4.8340 C.2     
  26 C26           -4.0130     0.0565    -4.0705 C.2     
  27 C27           -2.8569    -0.7828    -4.5518 C.3     
  28 C28           -2.9971     1.5513    -8.1869 C.ar    
  29 C29           -4.0959     1.9553    -8.9102 C.ar    
  30 C30           -5.3293     2.1049    -8.2850 C.ar    
  31 C31           -5.4573     1.7980    -6.9460 C.ar    
  32 O32           -6.4008     2.5528    -8.9862 O.3     
  33 C33           -6.1925     2.8537   -10.3675 C.3     
  34 C34           -1.3015     2.3723     0.0334 C.3     
  35 C35            1.2361     2.4052     0.0032 C.3     
  36 C36           -4.4378    -0.1370    -2.6985 C.2     
  37 N37           -4.5719     0.8188    -1.7902 N.am    
  38 O38           -4.6971    -1.2839    -2.3470 O.2     
  39 C39           -3.8593     2.1027    -1.9528 C.3     
  40 C40           -3.9878     2.8996    -0.6610 C.3     
  41 N41           -3.7126     2.0936     0.5352 N.3     
  42 C42           -4.7633     1.0753     0.6740 C.3     
  43 C43           -5.4417     0.6600    -0.6160 C.3     
  44 C44           -2.4119     1.4091     0.4298 C.3     
  45 H45            2.1547    -0.8342     0.2398 H       
  46 H46            3.1328     0.9213    -3.6364 H       
  47 H47            2.2187     1.8000    -5.7263 H       
  48 H48           -0.5276    -1.1271    -2.7364 H       
  49 H49           -1.0739     2.7752    -7.9487 H       
  50 H50           -0.5360     4.2345    -6.0175 H       
  51 H51            1.1218     3.5869    -5.9898 H       
  52 H52            1.7624     1.7274    -7.5307 H       
  53 H53            0.5610     1.0502    -8.6560 H       
  54 H54            2.1288     2.5671    -9.8349 H       
  55 H55            0.4710     3.2147    -9.8625 H       
  56 H56            2.6667     4.0264    -7.9036 H       
  57 H57            2.1095     4.9871    -9.2946 H       
  58 H58           -0.1696     5.0742    -8.3216 H       
  59 H59            1.0318     5.7514    -7.1963 H       
  60 H60           -5.4223     1.4548    -4.3646 H       
  61 H61           -3.1916    -1.4112    -5.3763 H       
  62 H62           -2.5004    -1.4046    -3.7344 H       
  63 H63           -2.0681     1.3877    -8.7134 H       
  64 H64           -3.9972     2.1619    -9.9660 H       
  65 H65           -6.4198     1.9041    -6.4685 H       
  66 H66           -5.8560     1.9570   -10.8879 H       
  67 H67           -7.1268     3.2008   -10.8087 H       
  68 H68           -5.4357     3.6327   -10.4596 H       
  69 H69           -1.2419     3.1852     0.7598 H       
  70 H70           -1.4984     2.7892    -0.9535 H       
  71 H71            2.0759     1.7104    -0.0086 H       
  72 H72            1.2752     3.0375    -0.8838 H       
  73 H73            1.2922     3.0279     0.8960 H       
  74 H74           -2.8074     1.9097    -2.1644 H       
  75 H75           -4.3012     2.6626    -2.7753 H       
  76 H76           -3.2853     3.7240    -0.6677 H       
  77 H77           -5.0016     3.2777    -0.5680 H       
  78 H78           -4.2926     0.2058     1.1280 H       
  79 H79           -5.5038     1.4799     1.3578 H       
  80 H80           -6.3358     1.2726    -0.7617 H       
  81 H81           -5.7502    -0.3845    -0.5417 H       
  82 H82           -2.5262     0.6296    -0.3165 H       
  83 H83           -2.1965     0.9737     1.4030 H       
@<TRIPOS>BOND
   1    1    2 am
   2    1   35 1
   3    1   34 1
   4    2    3 2
   5    2    4 am
   6    2    5 2
   7    4    6 am
   8    4   45 1
   9    6    7 2
  10    6    8 1
  11    8    9 ar
  12    8   13 ar
  13    9   10 ar
  14    9   46 1
  15   10   11 ar
  16   10   47 1
  17   11   12 ar
  18   11   14 1
  19   12   13 ar
  20   12   16 1
  21   13   48 1
  22   14   15 2
  23   14   17 1
  24   15   16 1
  25   15   23 1
  26   16   27 1
  27   17   18 1
  28   17   19 1
  29   17   49 1
  30   18   22 1
  31   18   50 1
  32   18   51 1
  33   19   20 1
  34   19   52 1
  35   19   53 1
  36   20   21 1
  37   20   54 1
  38   20   55 1
  39   21   22 1
  40   21   56 1
  41   21   57 1
  42   22   58 1
  43   22   59 1
  44   23   24 ar
  45   23   28 ar
  46   24   25 1
  47   24   31 ar
  48   25   26 2
  49   25   60 1
  50   26   27 1
  51   26   36 1
  52   27   61 1
  53   27   62 1
  54   28   29 ar
  55   28   63 1
  56   29   30 ar
  57   29   64 1
  58   30   31 ar
  59   30   32 1
  60   31   65 1
  61   32   33 1
  62   33   66 1
  63   33   67 1
  64   33   68 1
  65   34   44 1
  66   34   69 1
  67   34   70 1
  68   35   71 1
  69   35   72 1
  70   35   73 1
  71   36   37 am
  72   36   38 2
  73   37   39 1
  74   37   43 1
  75   39   40 1
  76   39   74 1
  77   39   75 1
  78   40   41 1
  79   40   76 1
  80   40   77 1
  81   41   42 1
  82   41   44 1
  83   42   43 1
  84   42   78 1
  85   42   79 1
  86   43   80 1
  87   43   81 1
  88   44   82 1
  89   44   83 1

#	End of record

