#	Name: ASD02670020
#	Creating user name:	WinNT
#	Creation time:	15. 06. 2019 20:26

#	Modifying user name:	WinNT
#	Modification time:	15. 06. 2019 20:26

#	Program:	/corina/corina34_cracker 3.40 0067  02.08.2006

@<TRIPOS>MOLECULE
ASD02670020
  84   87    0    0    0
SMALL
NO_CHARGES


@<TRIPOS>ATOM
   1 O1             0.0755     2.7800    -1.1972 O.3     
   2 O2             2.9492     5.4168    -1.4360 O.3     
   3 O3             3.1987     6.2144     3.9366 O.2     
   4 O4            -0.4490     5.7489    -2.0845 O.2     
   5 O5             5.5531     4.9294     7.4352 O.3     
   6 O6             5.9423     2.1485     7.3999 O.2     
   7 O7             2.5007     7.1686    -5.7220 O.3     
   8 O8             2.5723     7.7371    -7.8563 O.2     
   9 C9             1.6000     3.1986     1.6841 C.3     
  10 C10            1.9047     4.6367     1.2147 C.3     
  11 C11            2.3556     2.7757     2.9076 C.3     
  12 C12            1.0789     4.7128    -0.0747 C.3     
  13 C13            2.9495     3.8624     3.7712 C.3     
  14 C14            1.9046     2.4073     0.3917 C.3     
  15 C15            1.3092     3.3166    -0.7176 C.3     
  16 C16            1.5493     5.5734     2.3490 C.3     
  17 C17            2.6144     5.2793     3.4050 C.2     
  18 C18            2.8121     3.6291     5.2698 C.3     
  19 C19            0.0807     3.0677     1.9220 C.3     
  20 C20            1.4646     1.8485     3.7517 C.3     
  21 C21            3.3729     4.8148     0.8164 C.3     
  22 C22            1.6445     5.7983    -0.9953 C.3     
  23 C23            4.4828     3.7469     3.5686 C.3     
  24 C24            2.9103     2.1825     5.6463 C.2     
  25 C25            2.2778     1.3032     4.9055 C.2     
  26 C26            3.6680     1.7250     6.8677 C.3     
  27 C27            3.7480     4.5082     6.0348 C.2     
  28 C28            1.7307     7.1210    -0.2313 C.3     
  29 C29            0.7401     5.9658    -2.1891 C.2     
  30 C30            4.8824     2.6159     7.0490 C.2     
  31 C31            4.7147     4.0536     6.8276 C.2     
  32 C32            2.7728     1.8312     8.1118 C.3     
  33 C33            4.1521     0.2757     6.7254 C.3     
  34 C34            1.2960     6.3897    -3.4739 C.2     
  35 C35            0.4951     6.5380    -4.5311 C.2     
  36 C36            1.0678     6.9748    -5.8548 C.3     
  37 C37            0.4132     8.2892    -6.2849 C.3     
  38 C38            0.7940     5.8999    -6.9086 C.3     
  39 C39            3.1668     7.5611    -6.8192 C.2     
  40 C40            4.6562     7.7824    -6.7576 C.3     
  41 H41            3.2095     2.1426     2.5620 H       
  42 H42            0.0308     4.8895     0.1178 H       
  43 H43            2.9695     2.2565     0.2629 H       
  44 H44            1.3824     1.4477     0.4217 H       
  45 H45            2.0204     3.4074    -1.5389 H       
  46 H46            1.6294     6.6168     2.0247 H       
  47 H47            0.5574     5.4031     2.7507 H       
  48 H48            1.8052     3.9521     5.5210 H       
  49 H49           -0.4516     3.2749     0.9937 H       
  50 H50           -0.1491     2.0554     2.2545 H       
  51 H51           -0.2301     3.7804     2.6860 H       
  52 H52            0.6415     2.4057     4.1964 H       
  53 H53            1.1204     1.0114     3.1532 H       
  54 H54            3.6450     4.0559     0.0828 H       
  55 H55            3.5146     5.8053     0.3842 H       
  56 H56            4.0041     4.7098     1.6989 H       
  57 H57            4.6974     3.5640     2.5157 H       
  58 H58            4.9615     4.6749     3.8811 H       
  59 H59            4.8670     2.9205     4.1666 H       
  60 H60            2.2918     0.2542     5.0761 H       
  61 H61            3.6362     5.5817     5.9570 H       
  62 H62            0.1590     1.9090    -1.6088 H       
  63 H63            2.4780     7.0368     0.5577 H       
  64 H64            2.0148     7.9190    -0.9172 H       
  65 H65            0.7606     7.3496     0.2101 H       
  66 H66            2.9561     4.6553    -2.0319 H       
  67 H67            1.8919     1.2029     7.9802 H       
  68 H68            3.3285     1.4988     8.9887 H       
  69 H69            2.4631     2.8672     8.2492 H       
  70 H70            4.8128     0.1964     5.8621 H       
  71 H71            4.6933    -0.0167     7.6253 H       
  72 H72            3.2939    -0.3822     6.5877 H       
  73 H73            2.3545     6.5827    -3.5670 H       
  74 H74            6.2237     4.5103     7.9918 H       
  75 H75           -0.5634     6.3450    -4.4380 H       
  76 H76            0.8274     8.6051    -7.2424 H       
  77 H77           -0.6625     8.1437    -6.3847 H       
  78 H78            0.6082     9.0550    -5.5342 H       
  79 H79            1.2603     4.9636    -6.6022 H       
  80 H80           -0.2817     5.7545    -7.0083 H       
  81 H81            1.2082     6.2159    -7.8661 H       
  82 H82            5.1719     6.8531    -6.9992 H       
  83 H83            4.9392     8.5523    -7.4755 H       
  84 H84            4.9348     8.1020    -5.7534 H       
@<TRIPOS>BOND
   1    1   62 1
   2    1   15 1
   3    2   66 1
   4    2   22 1
   5    3   17 2
   6    4   29 2
   7    5   31 1
   8    5   74 1
   9    6   30 2
  10    7   36 1
  11    7   39 1
  12    8   39 2
  13    9   10 1
  14    9   14 1
  15    9   19 1
  16    9   11 1
  17   10   12 1
  18   10   16 1
  19   10   21 1
  20   11   20 1
  21   11   41 1
  22   11   13 1
  23   12   15 1
  24   12   22 1
  25   12   42 1
  26   13   17 1
  27   13   23 1
  28   13   18 1
  29   14   15 1
  30   14   43 1
  31   14   44 1
  32   15   45 1
  33   16   17 1
  34   16   46 1
  35   16   47 1
  36   18   24 1
  37   18   27 1
  38   18   48 1
  39   19   49 1
  40   19   50 1
  41   19   51 1
  42   20   25 1
  43   20   52 1
  44   20   53 1
  45   21   54 1
  46   21   55 1
  47   21   56 1
  48   22   28 1
  49   22   29 1
  50   23   57 1
  51   23   58 1
  52   23   59 1
  53   24   25 2
  54   24   26 1
  55   25   60 1
  56   26   30 1
  57   26   32 1
  58   26   33 1
  59   27   31 2
  60   27   61 1
  61   28   63 1
  62   28   64 1
  63   28   65 1
  64   29   34 1
  65   30   31 1
  66   32   67 1
  67   32   68 1
  68   32   69 1
  69   33   70 1
  70   33   71 1
  71   33   72 1
  72   34   35 2
  73   34   73 1
  74   35   36 1
  75   35   75 1
  76   36   37 1
  77   36   38 1
  78   37   76 1
  79   37   77 1
  80   37   78 1
  81   38   79 1
  82   38   80 1
  83   38   81 1
  84   39   40 1
  85   40   82 1
  86   40   83 1
  87   40   84 1

#	End of record

