#	Name: ASD04590439
#	Creating user name:	WinNT
#	Creation time:	15. 06. 2019 20:50

#	Modifying user name:	WinNT
#	Modification time:	15. 06. 2019 20:50

#	Program:	/corina/corina34_cracker 3.40 0067  02.08.2006

@<TRIPOS>MOLECULE
ASD04590439
  66   71    0    0    0
SMALL
NO_CHARGES


@<TRIPOS>ATOM
   1 C1            -0.4971     1.4937     0.1418 C.ar    
   2 C2            -0.2834     0.1247     0.0695 C.ar    
   3 C3             2.0873     0.4923    -0.0036 C.ar    
   4 C4             1.8647     1.8788     0.0698 C.ar    
   5 C5             0.5689     2.3688     0.1421 C.ar    
   6 N6             3.4286     0.3044    -0.0639 N.2     
   7 C7             4.0378     1.4649    -0.0330 C.2     
   8 N8             3.1132     2.4713     0.0496 N.pl3   
   9 C9             5.5019     1.6577    -0.0807 C.2     
  10 C10            6.4729     0.6334    -0.1669 C.2     
  11 C11            7.6938     1.2218    -0.1864 C.2     
  12 N12            7.5094     2.5664    -0.1155 N.pl3   
  13 N13            6.1325     2.8155    -0.0561 N.2     
  14 N14            6.2179    -0.7465    -0.2224 N.am    
  15 C15            7.2425    -1.6183    -0.3034 C.2     
  16 O16            8.3878    -1.2101    -0.3285 O.2     
  17 C17            6.9746    -3.0679    -0.3617 C.ar    
  18 C18            0.9948    -0.3805    -0.0028 C.ar    
  19 C19            6.8937    -3.8164     0.8176 C.ar    
  20 C20           -1.4602    -0.8166     0.0708 C.3     
  21 N21           -1.8958    -1.0578    -1.3113 N.3     
  22 C22           -2.8809    -2.1467    -1.3706 C.3     
  23 C23           -0.7476    -1.3422    -2.1833 C.3     
  24 C24           -1.2341    -1.5085    -3.6249 C.3     
  25 N25           -2.2192    -2.5974    -3.6842 N.3     
  26 C26           -3.3674    -2.3130    -2.8121 C.3     
  27 C27            6.6425    -5.1740     0.7538 C.ar    
  28 C28            6.4717    -5.7929    -0.4712 C.ar    
  29 C29            6.5501    -5.0606    -1.6419 C.ar    
  30 C30            6.7944    -3.7010    -1.5962 C.ar    
  31 F31            6.8705    -2.9875    -2.7409 F       
  32 F32            7.0612    -3.2139     2.0152 F       
  33 C33           -2.6548    -2.8386    -5.0662 C.3     
  34 C34           -1.4652    -3.3146    -5.9183 C.3     
  35 C35           -1.8312    -4.7193    -6.4404 C.3     
  36 C36           -3.3793    -4.7479    -6.4005 C.3     
  37 C37           -3.7021    -3.9707    -5.1002 C.3     
  38 H38           -1.5055     1.8769     0.1936 H       
  39 H39            0.3952     3.4333     0.1982 H       
  40 H40            3.2996     3.4225     0.0869 H       
  41 H41            8.6443     0.7126    -0.2471 H       
  42 H42            8.2098     3.2374    -0.1106 H       
  43 H43            5.3044    -1.0721    -0.2023 H       
  44 H44            1.1534    -1.4473    -0.0585 H       
  45 H45           -1.1694    -1.7613     0.5302 H       
  46 H46           -2.2791    -0.3738     0.6377 H       
  47 H47           -2.4183    -3.0743    -1.0336 H       
  48 H48           -3.7270    -1.9071    -0.7266 H       
  49 H49           -0.0385    -0.5160    -2.1318 H       
  50 H50           -0.2608    -2.2607    -1.8556 H       
  51 H51           -1.6967    -0.5808    -3.9619 H       
  52 H52           -0.3880    -1.7481    -4.2689 H       
  53 H53           -4.0765    -3.1392    -2.8636 H       
  54 H54           -3.8542    -1.3945    -3.1399 H       
  55 H55            6.5797    -5.7533     1.6631 H       
  56 H56            6.2764    -6.8542    -0.5139 H       
  57 H57            6.4158    -5.5519    -2.5943 H       
  58 H58           -3.0758    -1.9265    -5.4893 H       
  59 H59           -1.3095    -2.6340    -6.7554 H       
  60 H60           -0.5647    -3.3666    -5.3063 H       
  61 H61           -1.4733    -4.8520    -7.4614 H       
  62 H62           -1.4185    -5.4884    -5.7875 H       
  63 H63           -3.7975    -4.2388    -7.2688 H       
  64 H64           -3.7452    -5.7728    -6.3389 H       
  65 H65           -3.5916    -4.6189    -4.2309 H       
  66 H66           -4.7097    -3.5571    -5.1432 H       
@<TRIPOS>BOND
   1    1    2 ar
   2    1    5 ar
   3    1   38 1
   4    2   18 ar
   5    2   20 1
   6    3    4 ar
   7    3    6 1
   8    3   18 ar
   9    4    5 ar
  10    4    8 1
  11    5   39 1
  12    6    7 2
  13    7    8 1
  14    7    9 1
  15    8   40 1
  16    9   10 1
  17    9   13 2
  18   10   11 2
  19   10   14 1
  20   11   12 1
  21   11   41 1
  22   12   13 1
  23   12   42 1
  24   14   15 am
  25   14   43 1
  26   15   16 2
  27   15   17 1
  28   17   19 ar
  29   17   30 ar
  30   18   44 1
  31   19   27 ar
  32   19   32 1
  33   20   21 1
  34   20   45 1
  35   20   46 1
  36   21   22 1
  37   21   23 1
  38   22   26 1
  39   22   47 1
  40   22   48 1
  41   23   24 1
  42   23   49 1
  43   23   50 1
  44   24   25 1
  45   24   51 1
  46   24   52 1
  47   25   26 1
  48   25   33 1
  49   26   53 1
  50   26   54 1
  51   27   28 ar
  52   27   55 1
  53   28   29 ar
  54   28   56 1
  55   29   30 ar
  56   29   57 1
  57   30   31 1
  58   33   34 1
  59   33   37 1
  60   33   58 1
  61   34   35 1
  62   34   59 1
  63   34   60 1
  64   35   36 1
  65   35   61 1
  66   35   62 1
  67   36   37 1
  68   36   63 1
  69   36   64 1
  70   37   65 1
  71   37   66 1

#	End of record

