#	Name: ASD02508408
#	Creating user name:	WinNT
#	Creation time:	15. 06. 2019 20:24

#	Modifying user name:	WinNT
#	Modification time:	15. 06. 2019 20:24

#	Program:	/corina/corina34_cracker 3.40 0067  02.08.2006

@<TRIPOS>MOLECULE
ASD02508408
  39   41    0    0    0
SMALL
NO_CHARGES


@<TRIPOS>ATOM
   1 C1            -0.1883     1.8534    -0.4527 C.3     
   2 N2            -4.4111    -2.3674    -1.9741 N.2     
   3 C3            -3.0702    -2.3582    -1.9356 C.2     
   4 C4            -2.6204    -3.3757    -2.6938 C.2     
   5 N5            -3.7250    -4.0118    -3.2005 N.pl3   
   6 C6            -4.8156    -3.3526    -2.7281 C.2     
   7 C7            -3.7283    -5.1274    -4.0441 C.ar    
   8 C8            -4.5019    -5.1150    -5.1995 C.ar    
   9 N9            -2.9912    -6.1823    -3.7383 N.ar    
  10 C10           -2.9648    -7.2547    -4.5060 C.ar    
  11 C11           -3.7122    -7.3143    -5.6659 C.ar    
  12 C12           -4.4953    -6.2264    -6.0260 C.ar    
  13 S13           -0.9363    -3.8073    -2.9802 S.o2    
  14 O14           -0.5334    -4.6061    -1.8761 O.2     
  15 O15           -0.8591    -4.2493    -4.3285 O.2     
  16 N16           -0.0509    -2.4105    -2.8945 N.am    
  17 C17            0.0386    -1.7125    -1.6864 C.ar    
  18 C18            0.2797    -2.3983    -0.5033 C.ar    
  19 C19            0.3682    -1.7065     0.6892 C.ar    
  20 C20            0.2167    -0.3305     0.7052 C.ar    
  21 C21           -0.0238     0.3555    -0.4735 C.ar    
  22 C22           -0.1078    -0.3313    -1.6686 C.ar    
  23 Cl23          -5.4631    -3.7261    -5.6001 Cl      
  24 F24            0.3028     0.3440     1.8727 F       
  25 C25           -3.6729    -8.5451    -6.5345 C.3     
  26 F26           -2.8136    -9.4907    -5.9649 F       
  27 F27           -4.9594    -9.0854    -6.6361 F       
  28 F28           -3.2094    -8.2018    -7.8091 F       
  29 H29            0.7837     2.3276    -0.5884 H       
  30 H30           -0.8563     2.1568    -1.2589 H       
  31 H31           -0.6114     2.1592     0.5041 H       
  32 H32           -2.4572    -1.6556    -1.3906 H       
  33 H33           -5.8445    -3.6026    -2.9407 H       
  34 H34           -2.3505    -8.0970    -4.2240 H       
  35 H35           -5.0890    -6.2476    -6.9279 H       
  36 H36            0.4057    -2.0766    -3.6826 H       
  37 H37            0.3977    -3.4717    -0.5153 H       
  38 H38            0.5558    -2.2395     1.6096 H       
  39 H39           -0.2954     0.2041    -2.5876 H       
@<TRIPOS>BOND
   1    1   21 1
   2    1   29 1
   3    1   30 1
   4    1   31 1
   5    2    3 1
   6    2    6 2
   7    3    4 2
   8    3   32 1
   9    4    5 1
  10    4   13 1
  11    5    6 1
  12    5    7 1
  13    6   33 1
  14    7    8 ar
  15    7    9 ar
  16    8   23 1
  17    8   12 ar
  18    9   10 ar
  19   10   11 ar
  20   10   34 1
  21   11   12 ar
  22   11   25 1
  23   12   35 1
  24   13   14 2
  25   13   15 2
  26   13   16 am
  27   16   17 1
  28   16   36 1
  29   17   18 ar
  30   17   22 ar
  31   18   19 ar
  32   18   37 1
  33   19   20 ar
  34   19   38 1
  35   20   21 ar
  36   20   24 1
  37   21   22 ar
  38   22   39 1
  39   25   26 1
  40   25   27 1
  41   25   28 1

#	End of record

