#	Name: ASD03330302
#	Creating user name:	WinNT
#	Creation time:	15. 06. 2019 20:37

#	Modifying user name:	WinNT
#	Modification time:	15. 06. 2019 20:37

#	Program:	/corina/corina34_cracker 3.40 0067  02.08.2006

@<TRIPOS>MOLECULE
ASD03330302
  67   70    0    0    0
SMALL
NO_CHARGES


@<TRIPOS>ATOM
   1 C1             0.0498     1.4548     0.1024 C.3     
   2 N2            -0.0181     0.0058    -0.1339 N.3     
   3 C3             0.1979    -0.3121    -1.5570 C.3     
   4 C4             1.4419     0.4070    -2.0112 C.2     
   5 N5             2.0213     1.4223    -1.3185 N.pl3   
   6 C6             1.4975     1.9387    -0.0507 C.3     
   7 C7             2.1874     0.2038    -3.1261 C.2     
   8 N8             3.2100     1.0890    -3.1029 N.2     
   9 C9             3.1153     1.8238    -2.0173 C.2     
  10 C10            4.0438     2.9061    -1.6226 C.ar    
  11 C11            4.9383     3.4356    -2.5530 C.ar    
  12 C12            1.9298    -0.8002    -4.1736 C.2     
  13 O13            0.9718    -1.5437    -4.0809 O.2     
  14 C14            2.4997    -1.8926    -6.2757 C.3     
  15 N15            2.7558    -0.8945    -5.2344 N.am    
  16 C16            1.5016    -1.3282    -7.2887 C.3     
  17 C17           -1.2942    -0.5458     0.3409 C.3     
  18 C18            5.8013     4.4451    -2.1788 C.ar    
  19 C19            5.7807     4.9322    -0.8841 C.ar    
  20 C20            4.8959     4.4113     0.0432 C.ar    
  21 C21            4.0243     3.4053    -0.3200 C.ar    
  22 C22            2.0815    -0.0637    -7.9258 C.3     
  23 C23            1.2341    -2.3705    -8.3763 C.3     
  24 C24            0.1912    -0.9858    -6.5771 C.3     
  25 C25            3.7904    -2.2299    -6.9767 C.2     
  26 O26            4.7159    -1.3638    -7.4003 O.3     
  27 C27           -1.3695    -2.0328    -0.0111 C.3     
  28 N28            5.6318    -1.9636    -7.9225 N.2     
  29 C29            5.4057    -3.2429    -7.8945 C.2     
  30 N30            4.2227    -3.4295    -7.2824 N.2     
  31 C31            6.3061    -4.3200    -8.4424 C.3     
  32 C32           -0.2769    -2.7917     0.7447 C.3     
  33 C33           -2.7408    -2.5823     0.3872 C.3     
  34 H34           -0.5828     1.9698    -0.6205 H       
  35 H35           -0.3010     1.6743     1.1107 H       
  36 H36            0.3288    -1.3874    -1.6785 H       
  37 H37           -0.6570     0.0242    -2.1435 H       
  38 H38            1.5221     3.0284    -0.0593 H       
  39 H39            2.1002     1.5632     0.7763 H       
  40 H40            4.9556     3.0560    -3.5639 H       
  41 H41            2.0865    -2.7934    -5.8219 H       
  42 H42            3.5199    -0.3015    -5.3084 H       
  43 H43           -1.3627    -0.4243     1.4219 H       
  44 H44           -2.1188    -0.0170    -0.1372 H       
  45 H45            6.4945     4.8557    -2.8980 H       
  46 H46            6.4583     5.7222    -0.5960 H       
  47 H47            4.8847     4.7958     1.0524 H       
  48 H48            3.3341     2.9994     0.4048 H       
  49 H49            3.0151    -0.3077    -8.4328 H       
  50 H50            1.3704     0.3384    -8.6475 H       
  51 H51            2.2720     0.6789    -7.1510 H       
  52 H52            0.8210    -3.2713    -7.9225 H       
  53 H53            0.5231    -1.9684    -9.0980 H       
  54 H54            2.1677    -2.6145    -8.8833 H       
  55 H55            0.3817    -0.2432    -5.8023 H       
  56 H56           -0.5199    -0.5836    -7.2988 H       
  57 H57           -0.2220    -1.8866    -6.1233 H       
  58 H58           -1.2247    -2.1601    -1.0839 H       
  59 H59            6.9988    -4.6443    -7.6658 H       
  60 H60            5.7026    -5.1674    -8.7678 H       
  61 H61            6.8681    -3.9275    -9.2898 H       
  62 H62           -0.3731    -3.8594     0.5472 H       
  63 H63            0.7020    -2.4473     0.4109 H       
  64 H64           -0.3811    -2.6092     1.8142 H       
  65 H65           -3.5192    -2.0417    -0.1512 H       
  66 H66           -2.7944    -3.6418     0.1365 H       
  67 H67           -2.8856    -2.4551     1.4600 H       
@<TRIPOS>BOND
   1    1    2 1
   2    1    6 1
   3    1   34 1
   4    1   35 1
   5    2    3 1
   6    2   17 1
   7    3    4 1
   8    3   36 1
   9    3   37 1
  10    4    5 1
  11    4    7 2
  12    5    6 1
  13    5    9 1
  14    6   38 1
  15    6   39 1
  16    7    8 1
  17    7   12 1
  18    8    9 2
  19    9   10 1
  20   10   11 ar
  21   10   21 ar
  22   11   18 ar
  23   11   40 1
  24   12   13 2
  25   12   15 am
  26   14   15 1
  27   14   25 1
  28   14   16 1
  29   14   41 1
  30   15   42 1
  31   16   22 1
  32   16   23 1
  33   16   24 1
  34   17   27 1
  35   17   43 1
  36   17   44 1
  37   18   19 ar
  38   18   45 1
  39   19   20 ar
  40   19   46 1
  41   20   21 ar
  42   20   47 1
  43   21   48 1
  44   22   49 1
  45   22   50 1
  46   22   51 1
  47   23   52 1
  48   23   53 1
  49   23   54 1
  50   24   55 1
  51   24   56 1
  52   24   57 1
  53   25   26 1
  54   25   30 2
  55   26   28 1
  56   27   32 1
  57   27   33 1
  58   27   58 1
  59   28   29 2
  60   29   30 1
  61   29   31 1
  62   31   59 1
  63   31   60 1
  64   31   61 1
  65   32   62 1
  66   32   63 1
  67   32   64 1
  68   33   65 1
  69   33   66 1
  70   33   67 1

#	End of record

