#	Name: ASD08830117
#	Creating user name:	WinNT
#	Creation time:	15. 06. 2019 21:19

#	Modifying user name:	WinNT
#	Modification time:	15. 06. 2019 21:19

#	Program:	/corina/corina34_cracker 3.40 0067  02.08.2006

@<TRIPOS>MOLECULE
ASD08830117
  41   42    0    0    0
SMALL
NO_CHARGES


@<TRIPOS>ATOM
   1 C1            -0.0194     1.4689     0.0058 C.ar    
   2 C2            -0.0005    -0.0026    -0.0223 C.2     
   3 C3            -1.2954    -0.7733    -0.0061 C.3     
   4 C4            -0.9966    -2.2734    -0.0414 C.3     
   5 N5            -2.2589    -3.0246    -0.0255 N.3     
   6 O6             1.0570    -0.5948    -0.0586 O.2     
   7 C7             1.1797     2.1863    -0.0092 C.ar    
   8 C8            -0.0645     4.2429     0.0581 C.ar    
   9 C9            -1.2517     3.5338     0.0677 C.ar    
  10 C10           -1.2379     2.1550     0.0419 C.ar    
  11 C11           -2.0267    -4.4508    -0.2963 C.3     
  12 C12           -3.3569    -5.2040    -0.2114 C.3     
  13 O13           -4.2873    -4.6231    -1.1292 O.3     
  14 C14           -4.5374    -3.2348    -0.8941 C.3     
  15 C15           -3.2192    -2.4616    -0.9859 C.3     
  16 C16            1.1524     3.5719     0.0171 C.ar    
  17 N17            2.3482     4.2943     0.0027 N.pl3   
  18 C18            3.6301     3.5907     0.0906 C.3     
  19 C19            2.3200     5.7554    -0.1003 C.3     
  20 H20           -1.8490    -0.5343     0.9020 H       
  21 H21           -1.8913    -0.5008    -0.8771 H       
  22 H22           -0.4430    -2.5123    -0.9495 H       
  23 H23           -0.4007    -2.5458     0.8297 H       
  24 H24            2.1240     1.6632    -0.0408 H       
  25 H25           -0.0828     5.3226     0.0782 H       
  26 H26           -2.1933     4.0618     0.1000 H       
  27 H27           -2.1674     1.6052     0.0491 H       
  28 H28           -1.6053    -4.5678    -1.2947 H       
  29 H29           -1.3328    -4.8531     0.4417 H       
  30 H30           -3.1989    -6.2516    -0.4675 H       
  31 H31           -3.7519    -5.1319     0.8019 H       
  32 H32           -5.2332    -2.8582    -1.6438 H       
  33 H33           -4.9668    -3.1054     0.0994 H       
  34 H34           -3.3958    -1.4119    -0.7512 H       
  35 H35           -2.8168    -2.5468    -1.9953 H       
  36 H36            3.9790     3.3446    -0.9123 H       
  37 H37            4.3625     4.2302     0.5833 H       
  38 H38            3.5027     2.6739     0.6661 H       
  39 H39            1.2934     6.0893    -0.2507 H       
  40 H40            2.7133     6.1920     0.8178 H       
  41 H41            2.9325     6.0720    -0.9446 H       
@<TRIPOS>BOND
   1    1    2 1
   2    1    7 ar
   3    1   10 ar
   4    2    3 1
   5    2    6 2
   6    3    4 1
   7    3   20 1
   8    3   21 1
   9    4    5 1
  10    4   22 1
  11    4   23 1
  12    5   11 1
  13    5   15 1
  14    7   16 ar
  15    7   24 1
  16    8    9 ar
  17    8   16 ar
  18    8   25 1
  19    9   10 ar
  20    9   26 1
  21   10   27 1
  22   11   12 1
  23   11   28 1
  24   11   29 1
  25   12   13 1
  26   12   30 1
  27   12   31 1
  28   13   14 1
  29   14   15 1
  30   14   32 1
  31   14   33 1
  32   15   34 1
  33   15   35 1
  34   16   17 1
  35   17   18 1
  36   17   19 1
  37   18   36 1
  38   18   37 1
  39   18   38 1
  40   19   39 1
  41   19   40 1
  42   19   41 1

#	End of record

