#	Name: ASD03430489
#	Creating user name:	WinNT
#	Creation time:	15. 06. 2019 20:41

#	Modifying user name:	WinNT
#	Modification time:	15. 06. 2019 20:41

#	Program:	/corina/corina34_cracker 3.40 0067  02.08.2006

@<TRIPOS>MOLECULE
ASD03430489
  32   35    0    0    0
SMALL
NO_CHARGES


@<TRIPOS>ATOM
   1 N1            -0.0161     1.3395     0.0094 N.am    
   2 C2             0.0021    -0.0041     0.0020 C.2     
   3 C3             1.4548    -0.4298    -0.0141 C.3     
   4 C4             2.2198     0.8737    -0.0144 C.ar    
   5 C5             3.5644     1.1702    -0.0261 C.ar    
   6 C6             3.9805     2.4901    -0.0234 C.ar    
   7 C7             3.0433     3.5069    -0.0090 C.ar    
   8 C8             1.6949     3.2128     0.0032 C.ar    
   9 C9             1.2684     1.8852     0.0001 C.ar    
  10 O10           -0.9637    -0.7378     0.0073 O.2     
  11 O11            2.7533    -3.6328     4.4229 O.3     
  12 C12            3.5460    -4.6053     3.7165 C.3     
  13 O13            3.0500    -4.5355     2.3666 O.3     
  14 C14            2.5680    -3.2657     2.2206 C.ar    
  15 C15            2.3858    -2.7112     3.4854 C.ar    
  16 C16            2.2659    -2.5237     1.0910 C.ar    
  17 C17            1.7830    -1.2343     1.2172 C.ar    
  18 C18            1.6006    -0.6803     2.4751 C.ar    
  19 C19            1.9022    -1.4195     3.6093 C.ar    
  20 O20            1.1264     0.5882     2.5968 O.3     
  21 O21            1.7436    -1.1800    -1.1956 O.3     
  22 Br22           0.4236     4.6126     0.0234 Br      
  23 H23           -0.8287     1.8692     0.0163 H       
  24 H24            4.2935     0.3736    -0.0369 H       
  25 H25            5.0345     2.7254    -0.0321 H       
  26 H26            3.3683     4.5369    -0.0069 H       
  27 H27            4.6018    -4.3367     3.7510 H       
  28 H28            3.3894    -5.6011     4.1311 H       
  29 H29            2.4069    -2.9531     0.1102 H       
  30 H30            1.7598    -0.9877     4.5890 H       
  31 H31            0.1625     0.6445     2.6490 H       
  32 H32            1.2345    -1.9982    -1.2762 H       
@<TRIPOS>BOND
   1    1    2 am
   2    1    9 1
   3    1   23 1
   4    2    3 1
   5    2   10 2
   6    3    4 1
   7    3   17 1
   8    3   21 1
   9    4    5 ar
  10    4    9 ar
  11    5    6 ar
  12    5   24 1
  13    6    7 ar
  14    6   25 1
  15    7    8 ar
  16    7   26 1
  17    8    9 ar
  18    8   22 1
  19   11   12 1
  20   11   15 1
  21   12   13 1
  22   12   27 1
  23   12   28 1
  24   13   14 1
  25   14   15 ar
  26   14   16 ar
  27   15   19 ar
  28   16   17 ar
  29   16   29 1
  30   17   18 ar
  31   18   19 ar
  32   18   20 1
  33   19   30 1
  34   20   31 1
  35   21   32 1

#	End of record

