#	Name: ASD01883447
#	Creating user name:	WinNT
#	Creation time:	15. 06. 2019 19:46

#	Modifying user name:	WinNT
#	Modification time:	15. 06. 2019 19:46

#	Program:	/corina/corina34_cracker 3.40 0067  02.08.2006

@<TRIPOS>MOLECULE
ASD01883447
  61   63    0    0    0
SMALL
NO_CHARGES


@<TRIPOS>ATOM
   1 N1            -0.0080     1.3271     0.0354 N.am    
   2 C2            -0.3623     0.6471    -1.0708 C.2     
   3 C3            -1.5938    -0.0487    -1.1070 C.2     
   4 C4            -2.4239    -0.0108     0.0261 C.2     
   5 C5            -1.9981     0.7175     1.1524 C.2     
   6 C6            -0.8092     1.3586     1.1319 C.2     
   7 O7             0.3768     0.6309    -2.0406 O.2     
   8 C8            -1.9868    -0.7769    -2.2757 C.1     
   9 N9            -2.2985    -1.3546    -3.2029 N.1     
  10 N10           -3.6309    -0.6732     0.0341 N.pl3   
  11 C11           -4.8919     0.0702     0.1608 C.3     
  12 C12           -5.6944    -0.5155     1.3268 C.3     
  13 C13           -5.8708    -2.0207     1.1144 C.3     
  14 C14           -4.4985    -2.6976     1.0843 C.3     
  15 C15           -3.6827    -2.1362    -0.0901 C.3     
  16 C16            1.2701     2.0427     0.0594 C.3     
  17 C17            1.0645     3.4711    -0.4488 C.3     
  18 C18            2.3993     4.2185    -0.4237 C.3     
  19 C19            3.3655     3.5704    -1.4174 C.3     
  20 C20            2.1725     5.6807    -0.8126 C.3     
  21 N21           -6.6684    -2.5800     2.2139 N.3     
  22 C22           -7.3527    -3.8105     1.7949 C.3     
  23 C23           -8.1590    -4.3539     2.9463 C.ar    
  24 C24           -9.4718    -3.9575     3.1186 C.ar    
  25 C25          -10.2114    -4.4559     4.1750 C.ar    
  26 C26           -9.6382    -5.3510     5.0585 C.ar    
  27 C27           -8.3253    -5.7483     4.8856 C.ar    
  28 C28           -7.5872    -5.2533     3.8271 C.ar    
  29 C29           -7.7001    -6.7239     5.8492 C.3     
  30 F30           -8.6371    -7.0811     6.8247 F       
  31 F31           -7.2906    -7.8674     5.1550 F       
  32 F32           -6.5924    -6.1288     6.4623 F       
  33 H33           -2.6200     0.7608     2.0343 H       
  34 H34           -0.4930     1.9144     2.0022 H       
  35 H35           -4.6785     1.1212     0.3555 H       
  36 H36           -5.4656    -0.0236    -0.7613 H       
  37 H37           -5.1602    -0.3399     2.2606 H       
  38 H38           -6.6729    -0.0373     1.3715 H       
  39 H39           -6.3831    -2.1964     0.1685 H       
  40 H40           -3.9756    -2.5016     2.0204 H       
  41 H41           -4.6258    -3.7726     0.9564 H       
  42 H42           -4.1593    -2.4118    -1.0309 H       
  43 H43           -2.6709    -2.5405    -0.0585 H       
  44 H44            1.6512     2.0716     1.0802 H       
  45 H45            1.9865     1.5287    -0.5814 H       
  46 H46            0.6835     3.4422    -1.4696 H       
  47 H47            0.3482     3.9852     0.1920 H       
  48 H48            2.8236     4.1709     0.5793 H       
  49 H49            4.3164     4.1029    -1.3995 H       
  50 H50            3.5271     2.5287    -1.1403 H       
  51 H51            2.9412     3.6181    -2.4203 H       
  52 H52            1.4842     6.1424    -0.1046 H       
  53 H53            3.1235     6.2132    -0.7946 H       
  54 H54            1.7483     5.7284    -1.8155 H       
  55 H55           -6.0962    -2.7440     3.0287 H       
  56 H56           -8.0162    -3.5905     0.9586 H       
  57 H57           -6.6138    -4.5506     1.4876 H       
  58 H58           -9.9197    -3.2580     2.4283 H       
  59 H59          -11.2370    -4.1456     4.3100 H       
  60 H60          -10.2158    -5.7399     5.8841 H       
  61 H61           -6.5616    -5.5636     3.6920 H       
@<TRIPOS>BOND
   1    1    2 am
   2    1   16 1
   3    1    6 1
   4    2    3 1
   5    2    7 2
   6    3    4 2
   7    3    8 1
   8    4    5 1
   9    4   10 1
  10    5    6 2
  11    5   33 1
  12    6   34 1
  13    8    9 3
  14   10   11 1
  15   10   15 1
  16   11   12 1
  17   11   35 1
  18   11   36 1
  19   12   13 1
  20   12   37 1
  21   12   38 1
  22   13   14 1
  23   13   21 1
  24   13   39 1
  25   14   15 1
  26   14   40 1
  27   14   41 1
  28   15   42 1
  29   15   43 1
  30   16   17 1
  31   16   44 1
  32   16   45 1
  33   17   18 1
  34   17   46 1
  35   17   47 1
  36   18   19 1
  37   18   20 1
  38   18   48 1
  39   19   49 1
  40   19   50 1
  41   19   51 1
  42   20   52 1
  43   20   53 1
  44   20   54 1
  45   21   22 1
  46   21   55 1
  47   22   23 1
  48   22   56 1
  49   22   57 1
  50   23   24 ar
  51   23   28 ar
  52   24   25 ar
  53   24   58 1
  54   25   26 ar
  55   25   59 1
  56   26   27 ar
  57   26   60 1
  58   27   28 ar
  59   27   29 1
  60   28   61 1
  61   29   30 1
  62   29   31 1
  63   29   32 1

#	End of record

