#	Name: ASD01915309
#	Creating user name:	WinNT
#	Creation time:	15. 06. 2019 20:05

#	Modifying user name:	WinNT
#	Modification time:	15. 06. 2019 20:05

#	Program:	/corina/corina34_cracker 3.40 0067  02.08.2006

@<TRIPOS>MOLECULE
ASD01915309
  41   43    0    0    0
SMALL
NO_CHARGES


@<TRIPOS>ATOM
   1 N1            -0.0163     1.3480     0.0095 N.2     
   2 C2             0.0021    -0.0041     0.0020 C.2     
   3 N3             1.2564    -0.3731    -0.0119 N.2     
   4 O4             1.9778     0.6020    -0.0136 O.3     
   5 C5             1.2404     1.7169    -0.0006 C.2     
   6 C6             1.7579     3.1323     0.0013 C.3     
   7 C7            -1.1802    -0.9013     0.0092 C.ar    
   8 C8            -1.0087    -2.2837     0.0001 C.ar    
   9 C9            -2.1119    -3.1136     0.0073 C.ar    
  10 C10           -3.3855    -2.5748     0.0232 C.ar    
  11 C11           -3.5616    -1.2027     0.0323 C.ar    
  12 C12           -2.4657    -0.3639     0.0310 C.ar    
  13 N13            2.8571     3.2615     0.9690 N.am    
  14 C14            4.0811     3.6503     0.2450 C.3     
  15 C15            3.5755     4.3406    -1.0463 C.3     
  16 C16            2.3275     3.4847    -1.3889 C.3     
  17 C17            2.7616     3.0588     2.2981 C.2     
  18 O18            1.6987     2.7407     2.7881 O.2     
  19 C19            3.9753     3.2274     3.1752 C.3     
  20 C20           -1.9280    -4.6093    -0.0026 C.3     
  21 O21            3.6222     2.9597     4.5337 O.3     
  22 C22            4.7079     3.0922     5.4534 C.3     
  23 H23            0.9533     3.8206     0.2602 H       
  24 H24           -0.0146    -2.7055    -0.0130 H       
  25 H25           -4.2458    -3.2277     0.0281 H       
  26 H26           -4.5584    -0.7872     0.0443 H       
  27 H27           -2.6043     0.7072     0.0385 H       
  28 H28            4.6698     4.3468     0.8419 H       
  29 H29            4.6717     2.7683    -0.0026 H       
  30 H30            3.2975     5.3765    -0.8524 H       
  31 H31            4.3208     4.2796    -1.8394 H       
  32 H32            2.6151     2.5820    -1.9280 H       
  33 H33            1.6074     4.0661    -1.9647 H       
  34 H34            4.7523     2.5318     2.8579 H       
  35 H35            4.3457     4.2490     3.0906 H       
  36 H36           -1.8728    -4.9753     1.0226 H       
  37 H37           -2.7723    -5.0758    -0.5100 H       
  38 H38           -1.0058    -4.8585    -0.5275 H       
  39 H39            5.5000     2.3938     5.1834 H       
  40 H40            5.0934     4.1110     5.4161 H       
  41 H41            4.3583     2.8727     6.4622 H       
@<TRIPOS>BOND
   1    1    2 1
   2    1    5 2
   3    2    3 2
   4    2    7 1
   5    3    4 1
   6    4    5 1
   7    5    6 1
   8    6   13 1
   9    6   16 1
  10    6   23 1
  11    7    8 ar
  12    7   12 ar
  13    8    9 ar
  14    8   24 1
  15    9   10 ar
  16    9   20 1
  17   10   11 ar
  18   10   25 1
  19   11   12 ar
  20   11   26 1
  21   12   27 1
  22   13   14 1
  23   13   17 am
  24   14   15 1
  25   14   28 1
  26   14   29 1
  27   15   16 1
  28   15   30 1
  29   15   31 1
  30   16   32 1
  31   16   33 1
  32   17   18 2
  33   17   19 1
  34   19   21 1
  35   19   34 1
  36   19   35 1
  37   20   36 1
  38   20   37 1
  39   20   38 1
  40   21   22 1
  41   22   39 1
  42   22   40 1
  43   22   41 1

#	End of record

