#	Name: ASD01870639
#	Creating user name:	WinNT
#	Creation time:	15. 06. 2019 19:39

#	Modifying user name:	WinNT
#	Modification time:	15. 06. 2019 19:39

#	Program:	/corina/corina34_cracker 3.40 0067  02.08.2006

@<TRIPOS>MOLECULE
ASD01870639
  40   43    0    0    0
SMALL
NO_CHARGES


@<TRIPOS>ATOM
   1 C1             0.0353     1.3480    -0.2736 C.ar    
   2 C2             0.0506    -0.0348    -0.1515 C.ar    
   3 C3             1.2365    -0.7033     0.0939 C.ar    
   4 C4             2.4250    -0.0018     0.2210 C.ar    
   5 C5             1.2157     2.0610    -0.1487 C.ar    
   6 C6             1.5678     3.4950    -0.2172 C.2     
   7 C7             2.4245     1.3787     0.1014 C.ar    
   8 C8             3.4688     2.4212     0.1762 C.2     
   9 N9             2.8924     3.6208    -0.0187 N.am    
  10 C10            3.5821     4.8431    -0.0155 C.ar    
  11 C11            3.7362     5.5500     1.1693 C.ar    
  12 C12            4.4142     6.7524     1.1729 C.ar    
  13 C13            4.9430     7.2555    -0.0090 C.ar    
  14 C14            4.7896     6.5487    -1.1945 C.ar    
  15 C15            4.1156     5.3427    -1.1970 C.ar    
  16 O16            0.7913     4.4069    -0.4189 O.2     
  17 O17            4.6504     2.2274     0.3802 O.2     
  18 N18            5.6300     8.4750    -0.0051 N.am    
  19 Cl19           3.9291     4.4554    -2.6773 Cl      
  20 C20            5.5254     9.3107    -1.0573 C.2     
  21 C21            6.1613    10.6311    -1.0109 C.2     
  22 O22            4.9031     8.9694    -2.0461 O.2     
  23 O23            6.8812    11.1286     0.0159 O.3     
  24 C24            6.1337    11.5704    -2.0018 C.2     
  25 C25            6.8663    12.6724    -1.5337 C.2     
  26 C26            7.3064    12.3601    -0.2948 C.2     
  27 C27            5.4496    11.4474    -3.3389 C.3     
  28 Cl28          -1.4281    -0.9308    -0.3071 Cl      
  29 H29           -0.8925     1.8650    -0.4695 H       
  30 H30            1.2362    -1.7793     0.1873 H       
  31 H31            3.3479    -0.5290     0.4129 H       
  32 H32            3.3253     5.1592     2.0884 H       
  33 H33            4.5332     7.3024     2.0947 H       
  34 H34            5.2004     6.9398    -2.1136 H       
  35 H35            6.1813     8.7186     0.7548 H       
  36 H36            7.0470    13.5951    -2.0651 H       
  37 H37            7.9046    12.9976     0.3393 H       
  38 H38            4.4272    11.8166    -3.2593 H       
  39 H39            5.9916    12.0353    -4.0797 H       
  40 H40            5.4354    10.4013    -3.6449 H       
@<TRIPOS>BOND
   1    1    2 ar
   2    1    5 ar
   3    1   29 1
   4    2    3 ar
   5    2   28 1
   6    3    4 ar
   7    3   30 1
   8    4    7 ar
   9    4   31 1
  10    5    7 ar
  11    5    6 1
  12    6    9 am
  13    6   16 2
  14    7    8 1
  15    8    9 am
  16    8   17 2
  17    9   10 1
  18   10   11 ar
  19   10   15 ar
  20   11   12 ar
  21   11   32 1
  22   12   13 ar
  23   12   33 1
  24   13   14 ar
  25   13   18 1
  26   14   15 ar
  27   14   34 1
  28   15   19 1
  29   18   20 am
  30   18   35 1
  31   20   21 1
  32   20   22 2
  33   21   24 2
  34   21   23 1
  35   23   26 1
  36   24   25 1
  37   24   27 1
  38   25   26 2
  39   25   36 1
  40   26   37 1
  41   27   38 1
  42   27   39 1
  43   27   40 1

#	End of record

