#	Name: ASD02810008
#	Creating user name:	WinNT
#	Creation time:	15. 06. 2019 20:26

#	Modifying user name:	WinNT
#	Modification time:	15. 06. 2019 20:26

#	Program:	/corina/corina34_cracker 3.40 0067  02.08.2006

@<TRIPOS>MOLECULE
ASD02810008
 146  146    0    0    0
SMALL
NO_CHARGES


@<TRIPOS>ATOM
   1 C1             0.7685    -1.4533    -1.0661 C.3     
   2 C2           -23.7302    -0.9734   -15.0953 C.3     
   3 C3            -1.8099    -0.0462     1.2043 C.3     
   4 C4            -1.3082    -0.6661    -0.1014 C.3     
   5 C5            -2.0375    -0.0454    -1.2650 C.2     
   6 N6             0.1333    -0.4188    -0.2388 N.3     
   7 O7            -1.5553     0.9035    -1.8464 O.2     
   8 C8            -1.1719    -0.7709     2.3911 C.3     
   9 C9            -1.5586    -0.0608     3.6900 C.3     
  10 C10           -1.6694    -2.2172     2.4329 C.3     
  11 C11           -3.4137    -0.5419    -4.0980 C.3     
  12 C12           -3.9345     0.0587    -2.7907 C.3     
  13 C13           -5.4105    -0.2178    -2.6637 C.2     
  14 N14           -3.2255    -0.5448    -1.6595 N.am    
  15 O15           -5.8290    -0.8561    -1.7211 O.2     
  16 O16           -3.7392    -1.9325    -4.1462 O.3     
  17 C17           -8.3418     1.0334    -2.5742 C.3     
  18 C18           -7.7002    -0.0247    -3.4741 C.3     
  19 C19           -8.3392     0.0217    -4.8382 C.2     
  20 N20           -6.2654     0.2441    -3.5976 N.am    
  21 O21           -7.6626     0.2561    -5.8171 O.2     
  22 S22           -7.5727     0.9777    -0.9323 S.3     
  23 C23          -10.1388    -1.5165    -6.9739 C.3     
  24 C24          -10.2835    -0.1524    -6.2964 C.3     
  25 C25          -11.7453     0.1858    -6.1551 C.2     
  26 N26           -9.6624    -0.1974    -4.9703 N.am    
  27 O27          -12.2214     0.3710    -5.0552 O.2     
  28 C28           -8.6581    -1.8042    -7.2301 C.3     
  29 C29           -8.5156    -3.1479    -7.8975 C.2     
  30 O30           -9.5013    -3.8101    -8.1439 O.2     
  31 N31           -7.2928    -3.6135    -8.2204 N.am    
  32 C32          -14.1118     2.1304    -7.0409 C.3     
  33 C33          -13.9446     0.6113    -7.1140 C.3     
  34 C34          -14.7005     0.0794    -8.3042 C.2     
  35 N35          -12.5236     0.2825    -7.2512 N.am    
  36 O36          -14.1104    -0.5158    -9.1808 O.2     
  37 C37          -13.4498     2.6556    -5.7654 C.3     
  38 C38          -13.5074     4.1844    -5.7533 C.3     
  39 C39          -14.1902     2.1076    -4.5437 C.3     
  40 C40          -17.1358    -1.7170    -9.3086 C.3     
  41 C41          -16.7672    -0.2521    -9.5516 C.3     
  42 C42          -18.0238     0.5557    -9.7506 C.2     
  43 N43          -16.0324     0.2650    -8.3945 N.am    
  44 O44          -18.2803     1.4730    -8.9997 O.2     
  45 C45          -15.8790    -2.5451    -9.2319 C.ar    
  46 C46          -15.2544    -2.7404    -8.0139 C.ar    
  47 C47          -14.1023    -3.4991    -7.9410 C.ar    
  48 C48          -13.5719    -4.0652    -9.0912 C.ar    
  49 C49          -14.2005    -3.8677   -10.3121 C.ar    
  50 C50          -15.3556    -3.1129   -10.3788 C.ar    
  51 O51          -12.4384    -4.8116    -9.0221 O.3     
  52 C52          -19.7633     2.2911   -11.7825 C.3     
  53 C53          -20.0842     1.0440   -10.9562 C.3     
  54 C54          -21.1078     0.2099   -11.6825 C.2     
  55 N55          -18.8626     0.2587   -10.7628 N.am    
  56 O56          -20.8430    -0.9284   -12.0066 O.2     
  57 C57          -18.8198     3.1987   -10.9906 C.3     
  58 C58          -18.5038     4.4270   -11.8045 C.2     
  59 O59          -18.9858     4.5631   -12.9091 O.2     
  60 N60          -17.6856     5.3743   -11.3048 N.am    
  61 C61          -24.7156     0.4329   -12.3501 C.3     
  62 C62          -23.3126    -0.0820   -12.6778 C.3     
  63 C63          -23.0766     0.0140   -14.1631 C.2     
  64 N64          -22.3175     0.7289   -11.9718 N.am    
  65 O65          -22.3637     0.8821   -14.6063 O.2     
  66 N66          -26.6796     0.5320    -9.1099 N.pl3   
  67 C67          -27.8875     0.9200    -8.5802 C.2     
  68 N68          -28.7885     1.4689    -9.3456 N.2     
  69 N69          -28.1450     0.7291    -7.2433 N.pl3   
  70 C70          -25.0022     0.2205   -10.8622 C.3     
  71 C71          -26.4051     0.7354   -10.5345 C.3     
  72 H72            1.8182    -1.2026    -1.2187 H       
  73 H73            0.6946    -2.4172    -0.5626 H       
  74 H74            0.2639    -1.5076    -2.0307 H       
  75 H75          -24.3309    -1.6758   -14.5175 H       
  76 H76          -24.3703    -0.4404   -15.7984 H       
  77 H77          -22.9620    -1.5181   -15.6442 H       
  78 H78           -1.5376     1.0088     1.2337 H       
  79 H79           -2.8942    -0.1432     1.2595 H       
  80 H80           -1.4929    -1.7403    -0.0881 H       
  81 H81            0.5771    -0.3557     0.6652 H       
  82 H82           -0.0875    -0.7627     2.2815 H       
  83 H83           -1.1706    -0.6218     4.5402 H       
  84 H84           -1.1363     0.9440     3.6944 H       
  85 H85           -2.6446     0.0012     3.7608 H       
  86 H86           -1.3939    -2.7230     1.5075 H       
  87 H87           -1.2149    -2.7335     3.2784 H       
  88 H88           -2.7539    -2.2253     2.5425 H       
  89 H89           -3.8765    -0.0310    -4.9423 H       
  90 H90           -2.3317    -0.4200    -4.1482 H       
  91 H91           -3.7654     1.1355    -2.7928 H       
  92 H92           -3.6112    -1.3037    -1.1945 H       
  93 H93           -3.4387    -2.3791    -4.9496 H       
  94 H94           -8.1934     2.0208    -3.0116 H       
  95 H95           -9.4093     0.8335    -2.4824 H       
  96 H96           -7.8486    -1.0120    -3.0367 H       
  97 H97           -5.9307     0.7546    -4.3514 H       
  98 H98           -8.2237     1.9439    -0.2603 H       
  99 H99          -10.5524    -2.2896    -6.3263 H       
 100 H100         -10.6770    -1.5103    -7.9218 H       
 101 H101          -9.7915     0.6083    -6.9024 H       
 102 H102         -10.2035    -0.3850    -4.1874 H       
 103 H103          -8.2445    -1.0312    -7.8777 H       
 104 H104          -8.1199    -1.8104    -6.2822 H       
 105 H105          -6.5044    -3.0839    -8.0233 H       
 106 H106          -7.2010    -4.4784    -8.6500 H       
 107 H107         -13.6414     2.5899    -7.9101 H       
 108 H108         -15.1730     2.3789    -7.0282 H       
 109 H109         -14.3359     0.1584    -6.2030 H       
 110 H110         -12.1428     0.1344    -8.1310 H       
 111 H111         -12.4097     2.3309    -5.7358 H       
 112 H112         -14.5475     4.5091    -5.7830 H       
 113 H113         -13.0358     4.5586    -4.8446 H       
 114 H114         -12.9800     4.5748    -6.6237 H       
 115 H115         -15.2303     2.4323    -4.5734 H       
 116 H116         -14.1491     1.0184    -4.5524 H       
 117 H117         -13.7185     2.4818    -3.6351 H       
 118 H118         -17.6851    -1.8028    -8.3711 H       
 119 H119         -17.7579    -2.0760   -10.1285 H       
 120 H120         -16.1426    -0.1774   -10.4417 H       
 121 H121         -16.5043     0.7410    -7.6934 H       
 122 H122         -15.6675    -2.2992    -7.1189 H       
 123 H123         -13.6146    -3.6511    -6.9894 H       
 124 H124         -13.7896    -4.3074   -11.2089 H       
 125 H125         -15.8477    -2.9625   -11.3283 H       
 126 H126         -12.5962    -5.7533    -8.8690 H       
 127 H127         -19.2845     1.9952   -12.7159 H       
 128 H128         -20.6857     2.8288   -12.0018 H       
 129 H129         -20.4812     1.3431    -9.9862 H       
 130 H130         -18.6575    -0.4749   -11.3633 H       
 131 H131         -19.2987     3.4945   -10.0572 H       
 132 H132         -17.8974     2.6609   -10.7713 H       
 133 H133         -17.3002     5.2654   -10.4214 H       
 134 H134         -17.4822     6.1650   -11.8286 H       
 135 H135         -24.7762     1.4959   -12.5836 H       
 136 H136         -25.4503    -0.1118   -12.9430 H       
 137 H137         -23.2243    -1.1216   -12.3623 H       
 138 H138         -22.5293     1.6393   -11.7126 H       
 139 H139         -26.0090     0.1235    -8.5403 H       
 140 H140         -29.6407     1.7427    -8.9719 H       
 141 H141         -27.4744     0.3206    -6.6737 H       
 142 H142         -28.9972     1.0029    -6.8696 H       
 143 H143         -24.9416    -0.8425   -10.6287 H       
 144 H144         -24.2675     0.7652   -10.2693 H       
 145 H145         -27.1398     0.1907   -11.1274 H       
 146 H146         -26.4658     1.7984   -10.7680 H       
@<TRIPOS>BOND
   1    1    6 1
   2    1   72 1
   3    1   73 1
   4    1   74 1
   5    2   63 1
   6    2   75 1
   7    2   76 1
   8    2   77 1
   9    3    8 1
  10    3    4 1
  11    3   78 1
  12    3   79 1
  13    4    6 1
  14    4    5 1
  15    4   80 1
  16    5    7 2
  17    5   14 am
  18    6   81 1
  19    8    9 1
  20    8   10 1
  21    8   82 1
  22    9   83 1
  23    9   84 1
  24    9   85 1
  25   10   86 1
  26   10   87 1
  27   10   88 1
  28   11   16 1
  29   11   12 1
  30   11   89 1
  31   11   90 1
  32   12   14 1
  33   12   13 1
  34   12   91 1
  35   13   15 2
  36   13   20 am
  37   14   92 1
  38   16   93 1
  39   17   22 1
  40   17   18 1
  41   17   94 1
  42   17   95 1
  43   18   19 1
  44   18   20 1
  45   18   96 1
  46   19   21 2
  47   19   26 am
  48   20   97 1
  49   22   98 1
  50   23   28 1
  51   23   24 1
  52   23   99 1
  53   23  100 1
  54   24   26 1
  55   24   25 1
  56   24  101 1
  57   25   27 2
  58   25   35 am
  59   26  102 1
  60   28   29 1
  61   28  103 1
  62   28  104 1
  63   29   30 2
  64   29   31 am
  65   31  105 1
  66   31  106 1
  67   32   37 1
  68   32   33 1
  69   32  107 1
  70   32  108 1
  71   33   35 1
  72   33   34 1
  73   33  109 1
  74   34   36 2
  75   34   43 am
  76   35  110 1
  77   37   38 1
  78   37   39 1
  79   37  111 1
  80   38  112 1
  81   38  113 1
  82   38  114 1
  83   39  115 1
  84   39  116 1
  85   39  117 1
  86   40   45 1
  87   40   41 1
  88   40  118 1
  89   40  119 1
  90   41   42 1
  91   41   43 1
  92   41  120 1
  93   42   44 2
  94   42   55 am
  95   43  121 1
  96   45   46 ar
  97   45   50 ar
  98   46   47 ar
  99   46  122 1
 100   47   48 ar
 101   47  123 1
 102   48   49 ar
 103   48   51 1
 104   49   50 ar
 105   49  124 1
 106   50  125 1
 107   51  126 1
 108   52   57 1
 109   52   53 1
 110   52  127 1
 111   52  128 1
 112   53   55 1
 113   53   54 1
 114   53  129 1
 115   54   56 2
 116   54   64 am
 117   55  130 1
 118   57   58 1
 119   57  131 1
 120   57  132 1
 121   58   59 2
 122   58   60 am
 123   60  133 1
 124   60  134 1
 125   61   70 1
 126   61   62 1
 127   61  135 1
 128   61  136 1
 129   62   64 1
 130   62   63 1
 131   62  137 1
 132   63   65 2
 133   64  138 1
 134   66   71 1
 135   66   67 1
 136   66  139 1
 137   67   68 2
 138   67   69 1
 139   68  140 1
 140   69  141 1
 141   69  142 1
 142   70   71 1
 143   70  143 1
 144   70  144 1
 145   71  145 1
 146   71  146 1

#	End of record

