#	Name: ASD01911477
#	Creating user name:	WinNT
#	Creation time:	15. 06. 2019 19:57

#	Modifying user name:	WinNT
#	Modification time:	15. 06. 2019 19:57

#	Program:	/corina/corina34_cracker 3.40 0067  02.08.2006

@<TRIPOS>MOLECULE
ASD01911477
  33   33    0    0    0
SMALL
NO_CHARGES


@<TRIPOS>ATOM
   1 N1            -0.0168     1.3861     0.0097 N.pl3   
   2 C2             0.0021    -0.0041     0.0020 C.ar    
   3 C3             1.2198    -0.6769    -0.0132 C.ar    
   4 C4             1.2242    -2.0598    -0.0207 C.ar    
   5 C5             0.0054    -2.7267    -0.0126 C.ar    
   6 C6            -1.1654    -1.9950     0.0025 C.ar    
   7 N7            -1.1388    -0.6756     0.0148 N.ar    
   8 I8            -0.0552    -4.8207    -0.0240 I       
   9 C9             1.2418     2.1358     0.0017 C.3     
  10 C10            0.9419     3.6360     0.0126 C.3     
  11 C11            2.2561     4.4364     0.0043 C.3     
  12 C12            2.2441     5.2901    -1.2805 C.3     
  13 C13            0.7417     5.4270    -1.6316 C.3     
  14 C14            0.1771     4.0314    -1.2675 C.3     
  15 N15            0.1496     3.9818     1.2003 N.3     
  16 H16           -0.8633     1.8596     0.0163 H       
  17 H17            2.1491    -0.1266    -0.0195 H       
  18 H18            2.1541    -2.6090    -0.0329 H       
  19 H19           -2.1152    -2.5091     0.0084 H       
  20 H20            1.8254     1.8755     0.8847 H       
  21 H21            1.8084     1.8850    -0.8951 H       
  22 H22            2.3056     5.0820     0.8812 H       
  23 H23            3.1076     3.7560    -0.0074 H       
  24 H24            2.6825     6.2700    -1.0915 H       
  25 H25            2.7783     4.7804    -2.0823 H       
  26 H26            0.2728     6.2032    -1.0267 H       
  27 H27            0.6104     5.6317    -2.6941 H       
  28 H28            0.3775     3.3183    -2.0672 H       
  29 H29           -0.8929     4.0926    -1.0690 H       
  30 H30           -0.7215     3.4729     1.2146 H       
  31 H31            0.6763     3.8208     2.0458 H       
  32 Cl32           8.1076    11.2700     7.0458 Cl      
  33 H33            8.1076    12.6400     7.0458 H       
@<TRIPOS>BOND
   1    1    2 1
   2    1    9 1
   3    1   16 1
   4    2    3 ar
   5    2    7 ar
   6    3    4 ar
   7    3   17 1
   8    4    5 ar
   9    4   18 1
  10    5    6 ar
  11    5    8 1
  12    6    7 ar
  13    6   19 1
  14    9   10 1
  15    9   20 1
  16    9   21 1
  17   10   11 1
  18   10   14 1
  19   10   15 1
  20   11   12 1
  21   11   22 1
  22   11   23 1
  23   12   13 1
  24   12   24 1
  25   12   25 1
  26   13   14 1
  27   13   26 1
  28   13   27 1
  29   14   28 1
  30   14   29 1
  31   15   30 1
  32   15   31 1
  33   32   33 1

#	End of record

