#	Name: ASD01884003
#	Creating user name:	WinNT
#	Creation time:	15. 06. 2019 19:47

#	Modifying user name:	WinNT
#	Modification time:	15. 06. 2019 19:47

#	Program:	/corina/corina34_cracker 3.40 0067  02.08.2006

@<TRIPOS>MOLECULE
ASD01884003
  60   64    0    0    0
SMALL
NO_CHARGES


@<TRIPOS>ATOM
   1 C1            -0.0248     1.5027     0.0126 C.3     
   2 C2            -0.0018    -0.0041     0.0035 C.ar    
   3 C3            -0.5015    -0.6940    -1.0849 C.ar    
   4 C4            -0.4840    -2.0740    -1.1005 C.ar    
   5 C5             0.0402    -2.7778    -0.0148 C.ar    
   6 C6             0.5449    -2.0817     1.0837 C.ar    
   7 C7             0.5272    -0.6956     1.0876 C.ar    
   8 N8             1.0358     0.0064     2.1831 N.pl3   
   9 C9             1.5932    -0.7221     3.3253 C.3     
  10 C10            3.0641    -1.0524     3.0541 C.3     
  11 C11            3.6591    -1.7434     4.2838 C.3     
  12 O12            3.5122    -0.8939     5.4236 O.3     
  13 C13            2.1554    -0.5897     5.7535 C.3     
  14 C14            1.5001     0.1476     4.5828 C.3     
  15 C15            0.0597    -4.2558    -0.0288 C.2     
  16 C16            0.1680    -5.0745     1.0793 C.2     
  17 C17            0.1545    -6.3992     0.6330 C.2     
  18 C18            0.0416    -6.3671    -0.7273 C.2     
  19 C19           -0.0259    -7.4540    -1.7125 C.2     
  20 O20           -0.1669    -8.6155    -1.3770 O.2     
  21 N21            0.0766    -7.0949    -3.0139 N.am    
  22 C22           -0.2104    -8.0887    -4.0514 C.3     
  23 C23           -1.6965    -8.0353    -4.4115 C.3     
  24 C24           -1.9962    -9.0732    -5.4950 C.3     
  25 C25           -2.9518   -10.2130    -5.1364 C.3     
  26 C26           -3.4106    -9.0977    -6.0779 C.3     
  27 C27            0.4652    -5.7466    -3.4121 C.3     
  28 C28           -0.1790    -4.6696    -2.5393 C.3     
  29 N29           -0.0313    -5.0393    -1.1284 N.pl3   
  30 H30            0.8973     1.8827    -0.4272 H       
  31 H31           -0.8769     1.8566    -0.5677 H       
  32 H32           -0.1113     1.8585     1.0392 H       
  33 H33           -0.9074    -0.1514    -1.9258 H       
  34 H34           -0.8760    -2.6094    -1.9526 H       
  35 H35            0.9516    -2.6208     1.9265 H       
  36 H36            1.0200     0.9763     2.1874 H       
  37 H37            1.0331    -1.6447     3.4778 H       
  38 H38            3.1355    -1.7167     2.1929 H       
  39 H39            3.6128    -0.1325     2.8521 H       
  40 H40            3.1363    -2.6833     4.4612 H       
  41 H41            4.7170    -1.9424     4.1127 H       
  42 H42            1.6130    -1.5145     5.9500 H       
  43 H43            2.1302     0.0425     6.6411 H       
  44 H44            2.0171     1.0918     4.4116 H       
  45 H45            0.4529     0.3416     4.8148 H       
  46 H46            0.2485    -4.7492     2.1060 H       
  47 H47            0.2213    -7.2835     1.2494 H       
  48 H48            0.3862    -7.8716    -4.9374 H       
  49 H49            0.0381    -9.0831    -3.6806 H       
  50 H50           -2.2931    -8.2524    -3.5255 H       
  51 H51           -1.9450    -7.0409    -4.7823 H       
  52 H52           -1.1702    -9.3015    -6.1686 H       
  53 H53           -2.7545   -11.1916    -5.5740 H       
  54 H54           -3.3669   -10.2235    -4.1286 H       
  55 H55           -4.1276    -8.3744    -5.6894 H       
  56 H56           -3.5152    -9.3425    -7.1349 H       
  57 H57            1.5491    -5.6565    -3.3406 H       
  58 H58            0.1675    -5.5854    -4.4482 H       
  59 H59            0.3107    -3.7128    -2.7205 H       
  60 H60           -1.2386    -4.5895    -2.7822 H       
@<TRIPOS>BOND
   1    1    2 1
   2    1   30 1
   3    1   31 1
   4    1   32 1
   5    2    7 ar
   6    2    3 ar
   7    3    4 ar
   8    3   33 1
   9    4    5 ar
  10    4   34 1
  11    5    6 ar
  12    5   15 1
  13    6    7 ar
  14    6   35 1
  15    7    8 1
  16    8    9 1
  17    8   36 1
  18    9   14 1
  19    9   10 1
  20    9   37 1
  21   10   11 1
  22   10   38 1
  23   10   39 1
  24   11   12 1
  25   11   40 1
  26   11   41 1
  27   12   13 1
  28   13   14 1
  29   13   42 1
  30   13   43 1
  31   14   44 1
  32   14   45 1
  33   15   29 1
  34   15   16 2
  35   16   17 1
  36   16   46 1
  37   17   18 2
  38   17   47 1
  39   18   29 1
  40   18   19 1
  41   19   20 2
  42   19   21 am
  43   21   22 1
  44   21   27 1
  45   22   23 1
  46   22   48 1
  47   22   49 1
  48   23   24 1
  49   23   50 1
  50   23   51 1
  51   24   26 1
  52   24   25 1
  53   24   52 1
  54   25   26 1
  55   25   53 1
  56   25   54 1
  57   26   55 1
  58   26   56 1
  59   27   28 1
  60   27   57 1
  61   27   58 1
  62   28   29 1
  63   28   59 1
  64   28   60 1

#	End of record

