#	Name: ASD05720035
#	Creating user name:	WinNT
#	Creation time:	15. 06. 2019 21:01

#	Modifying user name:	WinNT
#	Modification time:	15. 06. 2019 21:01

#	Program:	/corina/corina34_cracker 3.40 0067  02.08.2006

@<TRIPOS>MOLECULE
ASD05720035
  85   88    0    0    0
SMALL
NO_CHARGES


@<TRIPOS>ATOM
   1 C1             0.5119     1.0237     1.1164 C.2     
   2 N2             0.4122    -0.2391     0.6808 N.am    
   3 C3             1.6580    -0.6134    -0.0049 C.3     
   4 C4             2.5297     0.6535     0.0955 C.3     
   5 N5             1.6824     1.6071     0.8270 N.am    
   6 O6            -0.3811     1.5906     1.7157 O.2     
   7 C7             2.0587     2.9775     1.1828 C.3     
   8 C8             2.7352     2.9807     2.5551 C.3     
   9 N9             3.1125     4.3548     2.9118 N.3     
  10 C10            3.5468     4.4347     4.3135 C.3     
  11 C11            4.0056     5.8619     4.6221 C.3     
  12 N12            2.9010     6.7957     4.3620 N.3     
  13 C13            2.4667     6.7158     2.9603 C.3     
  14 C14            2.0080     5.2887     2.6517 C.3     
  15 C15            1.3817    -0.9606    -1.4691 C.3     
  16 C16            0.5224    -2.2245    -1.5401 C.3     
  17 C17            0.6397     0.1988    -2.1369 C.3     
  18 C18           -1.6778    -3.1433     0.6617 C.2     
  19 N19           -0.6243    -2.3357     0.5053 N.2     
  20 C20           -0.6921    -1.0636     0.8499 C.2     
  21 C21           -1.8851    -0.5415     1.3900 C.2     
  22 C22           -2.9530    -1.3558     1.5497 C.2     
  23 N23           -2.8523    -2.6692     1.1834 N.pl3   
  24 N24           -3.7636    -3.7303     1.2267 N.2     
  25 C25           -3.1914    -4.8116     0.7573 C.2     
  26 C26           -1.8788    -4.5014     0.3811 C.2     
  27 C27           -0.8882    -5.4341    -0.2016 C.ar    
  28 C28           -0.6489    -6.6680     0.4062 C.ar    
  29 C29            0.2725    -7.5353    -0.1368 C.ar    
  30 C30            0.9670    -7.1812    -1.2934 C.ar    
  31 C31            0.7285    -5.9487    -1.9011 C.ar    
  32 C32           -0.1968    -5.0827    -1.3625 C.ar    
  33 N33            3.4781    -9.0331    -3.1490 N.pl3   
  34 N34            2.6749    -7.8969    -2.9593 N.2     
  35 C35            1.9599    -8.1156    -1.8770 C.2     
  36 N36            2.2776    -9.3227    -1.3893 N.2     
  37 C37            3.1866    -9.8797    -2.1451 C.2     
  38 H38            2.1383    -1.4495     0.5036 H       
  39 H39            3.4427     0.4464     0.6537 H       
  40 H40            2.7656     1.0352    -0.8979 H       
  41 H41            2.7493     3.3700     0.4364 H       
  42 H42            1.1662     3.6023     1.2162 H       
  43 H43            2.0446     2.5881     3.3015 H       
  44 H44            3.6277     2.3559     2.5217 H       
  45 H45            2.7157     4.1705     4.9673 H       
  46 H46            4.3734     3.7435     4.4780 H       
  47 H47            4.3009     5.9305     5.6691 H       
  48 H48            4.8542     6.1164     3.9871 H       
  49 H49            2.1294     6.6269     4.9898 H       
  50 H50            1.6402     7.4071     2.7958 H       
  51 H51            3.2979     6.9801     2.3065 H       
  52 H52            1.7127     5.2200     1.6047 H       
  53 H53            1.1594     5.0341     3.2867 H       
  54 H54            2.3257    -1.1336    -1.9859 H       
  55 H55           -0.4947    -1.9904    -1.2258 H       
  56 H56            0.5093    -2.5979    -2.5641 H       
  57 H57            0.9403    -2.9855    -0.8812 H       
  58 H58           -0.3043     0.3718    -1.6201 H       
  59 H59            1.2519     1.0992    -2.0863 H       
  60 H60            0.4428    -0.0485    -3.1801 H       
  61 H61           -1.9455     0.4988     1.6739 H       
  62 H62           -3.8748    -0.9730     1.9622 H       
  63 H63           -3.6570    -5.7823     0.6714 H       
  64 H64           -1.1861    -6.9420     1.3021 H       
  65 H65            0.4577    -8.4899     0.3333 H       
  66 H66            1.2666    -5.6751    -2.7966 H       
  67 H67           -0.3844    -4.1301    -1.8354 H       
  68 H68            4.1151    -9.1803    -3.8656 H       
  69 H69            3.6281   -10.8531    -1.9903 H       
  70 C70           11.0256    14.3953    11.8159 C.2     
  71 C71           11.0460    12.8885    11.8076 C.3     
  72 O72           12.0636    15.0136    11.8093 O.2     
  73 O73            9.8542    15.0506    11.8250 O.3     
  74 F74           12.3712    12.4401    11.7925 F       
  75 F75           10.4039    12.4071    12.9535 F       
  76 F76           10.3820    12.4193    10.6691 F       
  77 H77            9.8917    16.0168    11.8301 H       
  78 C78           18.5426    23.0051    19.1003 C.2     
  79 C79           18.5630    21.4982    19.0920 C.3     
  80 O80           19.5806    23.6234    19.0937 O.2     
  81 O81           17.3712    23.6603    19.1094 O.3     
  82 F82           19.8882    21.0499    19.0770 F       
  83 F83           17.9209    21.0168    20.2379 F       
  84 F84           17.8991    21.0291    17.9535 F       
  85 H85           17.4087    24.6266    19.1145 H       
@<TRIPOS>BOND
   1    1    2 am
   2    1    5 am
   3    1    6 2
   4    2    3 1
   5    2   20 1
   6    3    4 1
   7    3   15 1
   8    3   38 1
   9    4    5 1
  10    4   39 1
  11    4   40 1
  12    5    7 1
  13    7    8 1
  14    7   41 1
  15    7   42 1
  16    8    9 1
  17    8   43 1
  18    8   44 1
  19    9   10 1
  20    9   14 1
  21   10   11 1
  22   10   45 1
  23   10   46 1
  24   11   12 1
  25   11   47 1
  26   11   48 1
  27   12   13 1
  28   12   49 1
  29   13   14 1
  30   13   50 1
  31   13   51 1
  32   14   52 1
  33   14   53 1
  34   15   16 1
  35   15   17 1
  36   15   54 1
  37   16   55 1
  38   16   56 1
  39   16   57 1
  40   17   58 1
  41   17   59 1
  42   17   60 1
  43   18   19 1
  44   18   23 1
  45   18   26 2
  46   19   20 2
  47   20   21 1
  48   21   22 2
  49   21   61 1
  50   22   23 1
  51   22   62 1
  52   23   24 1
  53   24   25 2
  54   25   26 1
  55   25   63 1
  56   26   27 1
  57   27   28 ar
  58   27   32 ar
  59   28   29 ar
  60   28   64 1
  61   29   30 ar
  62   29   65 1
  63   30   31 ar
  64   30   35 1
  65   31   32 ar
  66   31   66 1
  67   32   67 1
  68   33   34 1
  69   33   37 1
  70   33   68 1
  71   34   35 2
  72   35   36 1
  73   36   37 2
  74   37   69 1
  75   70   71 1
  76   70   72 2
  77   70   73 1
  78   71   74 1
  79   71   75 1
  80   71   76 1
  81   73   77 1
  82   78   79 1
  83   78   80 2
  84   78   81 1
  85   79   82 1
  86   79   83 1
  87   79   84 1
  88   81   85 1

#	End of record

