#	Name: ASD00170968
#	Creating user name:	WinNT
#	Creation time:	15. 06. 2019 18:32

#	Modifying user name:	WinNT
#	Modification time:	15. 06. 2019 18:32

#	Program:	/corina/corina34_cracker 3.40 0067  02.08.2006

@<TRIPOS>MOLECULE
ASD00170968
  42   43    0    0    0
SMALL
NO_CHARGES


@<TRIPOS>ATOM
   1 C1             0.3102     0.7772     0.6144 C.2     
   2 O2             0.5712     0.4539     1.7592 O.2     
   3 C3             1.1654     0.3118    -0.4986 C.ar    
   4 C4             2.3307    -0.4097    -0.2326 C.ar    
   5 C5             3.1239    -0.8414    -1.2746 C.ar    
   6 C6             2.7667    -0.5606    -2.5831 C.ar    
   7 C7             1.6120     0.1552    -2.8532 C.ar    
   8 C8             0.8077     0.5872    -1.8197 C.ar    
   9 Cl9            3.7703    -1.1075    -3.8897 Cl      
  10 C10           -0.8273     2.9950     0.3947 C.2     
  11 C11           -0.8525     1.6209     0.3398 C.2     
  12 C12           -2.1552     1.1001    -0.0194 C.2     
  13 C13           -3.0578     2.0482    -0.2222 C.2     
  14 S14           -2.3591     3.6396     0.0165 S.3     
  15 Br15          -4.8582     1.7290    -0.7046 Br      
  16 C16           -2.4536    -0.3714    -0.1496 C.3     
  17 N17           -2.9008    -0.8970     1.1472 N.3     
  18 N18            0.2837     3.7479     0.7174 N.pl3   
  19 C19           -4.1910    -0.3118     1.5358 C.3     
  20 C20           -4.4127    -0.5199     3.0118 C.2     
  21 C21           -4.6384     0.5082     3.7916 C.2     
  22 C22           -2.9738    -2.3640     1.1237 C.3     
  23 C23           -2.9987    -2.8884     2.5363 C.2     
  24 C24           -3.9682    -3.6793     2.9244 C.2     
  25 H25            2.6104    -0.6289     0.7872 H       
  26 H26            4.0258    -1.3993    -1.0701 H       
  27 H27            1.3388     0.3718    -3.8754 H       
  28 H28           -0.0947     1.1414    -2.0316 H       
  29 H29           -3.2385    -0.5186    -0.8915 H       
  30 H30           -1.5528    -0.8983    -0.4642 H       
  31 H31            1.1024     3.3091     0.9968 H       
  32 H32            0.2457     4.7157     0.6647 H       
  33 H33           -4.1866     0.7558     1.3160 H       
  34 H34           -4.9922    -0.7947     0.9764 H       
  35 H35           -4.3854    -1.5167     3.4267 H       
  36 H36           -4.6657     1.5049     3.3767 H       
  37 H37           -4.7973     0.3591     4.8494 H       
  38 H38           -3.8808    -2.6744     0.6049 H       
  39 H39           -2.1030    -2.7628     0.6034 H       
  40 H40           -2.2173    -2.6121     3.2287 H       
  41 H41           -3.9860    -4.0551     3.9368 H       
  42 H42           -4.7496    -3.9556     2.2320 H       
@<TRIPOS>BOND
   1    1    2 2
   2    1    3 1
   3    1   11 1
   4    3    4 ar
   5    3    8 ar
   6    4    5 ar
   7    4   25 1
   8    5    6 ar
   9    5   26 1
  10    6    7 ar
  11    6    9 1
  12    7    8 ar
  13    7   27 1
  14    8   28 1
  15   10   11 2
  16   10   14 1
  17   10   18 1
  18   11   12 1
  19   12   13 2
  20   12   16 1
  21   13   14 1
  22   13   15 1
  23   16   17 1
  24   16   29 1
  25   16   30 1
  26   17   19 1
  27   17   22 1
  28   18   31 1
  29   18   32 1
  30   19   20 1
  31   19   33 1
  32   19   34 1
  33   20   21 2
  34   20   35 1
  35   21   36 1
  36   21   37 1
  37   22   23 1
  38   22   38 1
  39   22   39 1
  40   23   24 2
  41   23   40 1
  42   24   41 1
  43   24   42 1

#	End of record

