#	Name: ASD03091376
#	Creating user name:	WinNT
#	Creation time:	15. 06. 2019 20:30

#	Modifying user name:	WinNT
#	Modification time:	15. 06. 2019 20:30

#	Program:	/corina/corina34_cracker 3.40 0067  02.08.2006

@<TRIPOS>MOLECULE
ASD03091376
  52   56    0    0    0
SMALL
NO_CHARGES


@<TRIPOS>ATOM
   1 N1            -0.0439     1.3064    -0.3793 N.am    
   2 C2            -0.0089     0.0103     0.0596 C.2     
   3 N3            -1.0705    -0.6327     0.4712 N.2     
   4 C4            -2.2876    -0.0522     0.4904 C.ar    
   5 C5            -2.4193     1.2860     0.0544 C.ar    
   6 C6            -1.2111     1.9913    -0.3989 C.2     
   7 O7            -1.2605     3.1444    -0.7858 O.2     
   8 C8            -3.4194    -0.7452     0.9313 C.ar    
   9 C9            -4.6367    -0.1274     0.9373 C.ar    
  10 C10           -4.7719     1.1931     0.5080 C.ar    
  11 C11           -3.6681     1.9030     0.0663 C.ar    
  12 N12           -6.0292     1.8030     0.5234 N.3     
  13 C13            1.1902     1.9579    -0.8249 C.3     
  14 C14           -5.9274     3.2251     0.1828 C.3     
  15 C15           -6.9576     1.1186    -0.3871 C.3     
  16 C16           -8.3551     1.0790     0.2139 C.3     
  17 C17           -9.0481     2.4245     0.2189 C.3     
  18 N18           -8.2824     3.4491    -0.5028 N.4     
  19 C19           -7.2365     3.9731     0.3880 C.3     
  20 C20           -6.9115     1.8069    -1.7407 C.3     
  21 C21           -7.8438     3.0041    -1.8003 C.3     
  22 C22            1.2897    -0.6956     0.0683 C.ar    
  23 C23            2.1671    -0.5622    -1.0089 C.ar    
  24 C24            3.3781    -1.2232    -0.9949 C.ar    
  25 C25            3.7240    -2.0174     0.0834 C.ar    
  26 C26            2.8585    -2.1545     1.1559 C.ar    
  27 C27            1.6463    -1.4938     1.1566 C.ar    
  28 Cl28           3.3013    -3.1540     2.5044 Cl      
  29 O29           -9.2081     4.5551    -0.7483 O.3     
  30 H30           -3.3306    -1.7681     1.2663 H       
  31 H31           -5.5069    -0.6683     1.2786 H       
  32 H32           -3.7744     2.9252    -0.2657 H       
  33 H33            1.3622     1.7299    -1.8768 H       
  34 H34            1.0982     3.0365    -0.6973 H       
  35 H35            2.0286     1.5922    -0.2321 H       
  36 H36           -5.1593     3.6823     0.8066 H       
  37 H37           -5.6299     3.3164    -0.8618 H       
  38 H38           -6.6123     0.0935    -0.5212 H       
  39 H39           -8.9612     0.3762    -0.3578 H       
  40 H40           -8.2836     0.7194     1.2404 H       
  41 H41          -10.0267     2.3195    -0.2496 H       
  42 H42           -9.1853     2.7474     1.2508 H       
  43 H43           -7.5567     3.8582     1.4236 H       
  44 H44           -7.0820     5.0311     0.1764 H       
  45 H45           -5.8922     2.1412    -1.9340 H       
  46 H46           -7.2013     1.0930    -2.5117 H       
  47 H47           -8.7188     2.7369    -2.3928 H       
  48 H48           -7.3266     3.8259    -2.2956 H       
  49 H49            1.8984     0.0569    -1.8520 H       
  50 H50            4.0576    -1.1205    -1.8282 H       
  51 H51            4.6729    -2.5332     0.0889 H       
  52 H52            0.9719    -1.6008     1.9934 H       
@<TRIPOS>BOND
   1    1    2 1
   2    1   13 1
   3    1    6 am
   4    2    3 2
   5    2   22 1
   6    3    4 1
   7    4    5 ar
   8    4    8 ar
   9    5    6 1
  10    5   11 ar
  11    6    7 2
  12    8    9 ar
  13    8   30 1
  14    9   10 ar
  15    9   31 1
  16   10   11 ar
  17   10   12 1
  18   11   32 1
  19   12   15 1
  20   12   14 1
  21   13   33 1
  22   13   34 1
  23   13   35 1
  24   14   19 1
  25   14   36 1
  26   14   37 1
  27   15   16 1
  28   15   20 1
  29   15   38 1
  30   16   17 1
  31   16   39 1
  32   16   40 1
  33   17   18 1
  34   17   41 1
  35   17   42 1
  36   18   19 1
  37   18   29 1
  38   18   21 1
  39   19   43 1
  40   19   44 1
  41   20   21 1
  42   20   45 1
  43   20   46 1
  44   21   47 1
  45   21   48 1
  46   22   23 ar
  47   22   27 ar
  48   23   24 ar
  49   23   49 1
  50   24   25 ar
  51   24   50 1
  52   25   26 ar
  53   25   51 1
  54   26   27 ar
  55   26   28 1
  56   27   52 1

#	End of record

