#	Name: ASD04220038
#	Creating user name:	WinNT
#	Creation time:	15. 06. 2019 20:48

#	Modifying user name:	WinNT
#	Modification time:	15. 06. 2019 20:48

#	Program:	/corina/corina34_cracker 3.40 0067  02.08.2006

@<TRIPOS>MOLECULE
ASD04220038
 160  164    0    0    0
SMALL
NO_CHARGES


@<TRIPOS>ATOM
   1 S1             0.7480     0.5026     0.1943 S.o2    
   2 S2             4.6619    -0.8263    -0.0776 S.o2    
   3 S3             5.2321     1.8944     2.8957 S.o2    
   4 S4             4.6188    -2.7769     9.4328 S.o2    
   5 S5            -0.0420    -6.9724     2.5680 S.o2    
   6 S6            -7.9733    -6.8731     0.9295 S.o2    
   7 S7             3.4889    -0.6095    12.7770 S.o2    
   8 S8             6.5705     5.2560     6.9944 S.o2    
   9 S9            -7.8703    -1.0458    -4.8035 S.o2    
  10 O10           -0.7536    -2.5365     2.1330 O.3     
  11 O11            2.6633    -3.6708     2.8137 O.3     
  12 O12            3.3258    -1.5644     3.5687 O.3     
  13 O13           -1.7087    -3.3308     0.1573 O.3     
  14 O14            3.3770     0.0263     5.9304 O.3     
  15 O15            5.4136     0.2162     7.0540 O.3     
  16 O16           -4.8959    -4.9555    -0.6346 O.3     
  17 O17            0.7755    -1.0181     0.2520 O.3     
  18 O18            3.5311    -0.6526     0.9262 O.3     
  19 O19            6.2492    -1.8266     5.7647 O.3     
  20 O20           -6.4144    -3.4800    -1.6160 O.3     
  21 O21           -3.0638    -3.4042     3.5608 O.3     
  22 O22            4.7093     0.5885     3.4769 O.3     
  23 O23           -5.3924    -3.8836     1.9704 O.3     
  24 O24            5.2833     2.4408     9.9626 O.3     
  25 O25            4.0995    -1.4119     9.0044 O.3     
  26 O26            0.6173    -5.6233     2.3192 O.3     
  27 O27           -6.9469    -6.8141    -0.1927 O.3     
  28 O28            4.5896    -0.6934    11.7292 O.3     
  29 O29           -7.6040    -7.2185    -2.9470 O.3     
  30 O30           -6.4433    -5.3447    -4.7699 O.3     
  31 O31            6.7043     1.0707    11.2075 O.3     
  32 O32            6.5787     4.0982     7.9824 O.3     
  33 O33            1.7275    -3.2155     6.2359 O.3     
  34 O34           -3.0218    -4.9395    -2.8314 O.3     
  35 O35           -7.5760    -2.2506    -3.9214 O.3     
  36 O36            1.0425    -1.1385     5.9194 O.2     
  37 O37           -2.0061    -3.0185    -2.4296 O.2     
  38 O38            2.1698     0.9686    -0.0848 O.3     
  39 O39            4.0252    -0.9807    -1.4513 O.3     
  40 O40           -0.0193     0.8468    -0.9511 O.2     
  41 O41            0.4298     0.9482     1.5056 O.2     
  42 O42            5.3711     0.4049    -0.1001 O.2     
  43 O43            5.2766    -2.0719     0.2221 O.2     
  44 O44            6.5368     1.5781     2.1787 O.3     
  45 O45            4.3065     2.2853     1.8908 O.2     
  46 O46            5.5719     2.7185     4.0024 O.2     
  47 O47            4.3976    -2.8922    10.9342 O.3     
  48 O48           -1.5470    -6.7455     2.5662 O.3     
  49 O49           -9.2701    -7.3945     0.3271 O.3     
  50 O50            3.7664    -3.7388     8.8266 O.2     
  51 O51            6.0257    -2.7510     9.2352 O.2     
  52 O52            2.2265    -1.1850    12.1514 O.3     
  53 O53            0.2442    -7.7747     1.4306 O.2     
  54 O54            0.3053    -7.3504     3.8930 O.2     
  55 O55           -7.5215    -7.8713     1.8344 O.2     
  56 O56           -8.2226    -5.5288     1.3165 O.2     
  57 O57            3.8605    -1.4986    13.8214 O.2     
  58 O58            3.2385     0.7736    12.9861 O.2     
  59 O59            5.3030     6.0584     7.2514 O.3     
  60 O60            7.6578     6.0974     7.3533 O.2     
  61 O61            6.4263     4.6806     5.7032 O.2     
  62 O62           -7.7510    -1.5060    -6.2493 O.3     
  63 O63           -9.2385    -0.7221    -4.5971 O.2     
  64 O64           -6.8121    -0.1223    -4.5877 O.2     
  65 C65            0.6145    -2.8321     1.8447 C.3     
  66 C66            1.3448    -1.5440     1.4526 C.3     
  67 C67            2.8258    -1.8598     1.2218 C.3     
  68 C68            1.2814    -3.4299     3.0862 C.3     
  69 C69            3.4073    -2.4952     2.4875 C.3     
  70 C70            4.0675    -1.9523     4.7269 C.3     
  71 C71            5.4876    -1.3851     4.6390 C.3     
  72 C72           -1.6798    -3.4731     1.5789 C.3     
  73 C73           -3.0766    -3.2060     2.1456 C.3     
  74 C74           -4.0221    -4.0066    -0.0196 C.3     
  75 C75           -4.0740    -4.1742     1.5021 C.3     
  76 C76            5.4153     0.1449     4.6375 C.3     
  77 C77            4.6789     0.6145     5.8948 C.3     
  78 C78            3.3831    -1.4018     5.9808 C.3     
  79 C79            4.9037     0.7508     8.2773 C.3     
  80 C80           -2.5888    -4.2429    -0.5027 C.3     
  81 C81            4.9539    -0.3252     9.3664 C.3     
  82 C82           -6.2640    -4.5449    -0.6750 C.3     
  83 C83            0.5954    -4.7486     3.4489 C.3     
  84 C84            5.7595     1.9442     8.7101 C.3     
  85 C85           -7.1394    -5.7268    -1.0998 C.3     
  86 C86            4.4785     0.2814    10.6902 C.3     
  87 C87           -6.7432    -6.1634    -2.5136 C.3     
  88 C88           -6.8795    -4.9685    -3.4622 C.3     
  89 C89           -6.0141    -3.8159    -2.9461 C.3     
  90 C90            5.3507     1.4928    11.0298 C.3     
  91 C91            1.9653    -1.9086     6.0431 C.2     
  92 C92            5.6665     3.0481     7.6548 C.3     
  93 C93           -2.5174    -4.0218    -1.9916 C.2     
  94 C94           -6.1914    -2.5980    -3.8551 C.3     
  95 C95            7.6471    -1.9649     5.5025 C.3     
  96 C96           -2.7481    -2.2288     4.3095 C.3     
  97 C97           -5.7601    -4.5979     3.1522 C.3     
  98 C98           -7.1300    -8.5265    -2.6208 C.3     
  99 C99           -7.2352    -4.7980    -5.8264 C.3     
 100 C100           7.5619     2.0794    11.7452 C.3     
 101 H101           0.6675    -3.5456     1.0223 H       
 102 H102           1.2474    -0.8113     2.2537 H       
 103 H103           2.9246    -2.5532     0.3867 H       
 104 H104           1.1914    -2.7321     3.9188 H       
 105 H105           4.4501    -2.7612     2.3145 H       
 106 H106           4.1125    -3.0400     4.7831 H       
 107 H107           5.9618    -1.7300     3.7201 H       
 108 H108          -1.3704    -4.4861     1.8366 H       
 109 H109          -3.3693    -2.1796     1.9243 H       
 110 H110          -4.3355    -2.9971    -0.2857 H       
 111 H111          -3.8096    -5.1983     1.7654 H       
 112 H112           6.4243     0.5573     4.6298 H       
 113 H113           4.5868     1.7005     5.8780 H       
 114 H114           3.9266    -1.7319     6.8661 H       
 115 H115           3.8730     1.0742     8.1319 H       
 116 H116          -2.2915    -5.2659    -0.2722 H       
 117 H117           5.9766    -0.6861     9.4755 H       
 118 H118          -6.5701    -4.2025     0.3135 H       
 119 H119          -0.4374    -4.5535     3.7374 H       
 120 H120           1.1229    -5.2158     4.2805 H       
 121 H121           6.7974     1.6281     8.8153 H       
 122 H122          -8.1870    -5.4260    -1.0907 H       
 123 H123           3.4390     0.5951    10.5947 H       
 124 H124          -5.7107    -6.5129    -2.5113 H       
 125 H125          -7.9220    -4.6527    -3.5027 H       
 126 H126          -4.9673    -4.1195    -2.9449 H       
 127 H127           4.9900     1.9542    11.9491 H       
 128 H128           4.6510     3.4433     7.6309 H       
 129 H129           5.9201     2.6384     6.6771 H       
 130 H130          -5.8280    -2.8350    -4.8550 H       
 131 H131          -5.6250    -1.7584    -3.4522 H       
 132 H132           8.0561    -1.0025     5.1949 H       
 133 H133           8.1545    -2.3033     6.4059 H       
 134 H134           7.7971    -2.6945     4.7066 H       
 135 H135          -3.4867    -1.4551     4.0998 H       
 136 H136          -2.7588    -2.4623     5.3741 H       
 137 H137          -1.7579    -1.8722     4.0257 H       
 138 H138          -5.0701    -4.3471     3.9578 H       
 139 H139          -6.7737    -4.3221     3.4429 H       
 140 H140          -5.7169    -5.6695     2.9572 H       
 141 H141           0.8018    -3.4931     6.2686 H       
 142 H142          -3.0152    -4.7229    -3.7738 H       
 143 H143          -6.1601    -8.6892    -3.0909 H       
 144 H144          -7.0294    -8.6173    -1.5393 H       
 145 H145          -7.8389    -9.2708    -2.9835 H       
 146 H146          -6.7914    -5.0610    -6.7866 H       
 147 H147          -8.2456    -5.2029    -5.7701 H       
 148 H148          -7.2725    -3.7130    -5.7284 H       
 149 H149           7.5782     2.9381    11.0740 H       
 150 H150           7.1906     2.3890    12.7222 H       
 151 H151           8.5709     1.6806    11.8496 H       
 152 H152           2.2647     1.9292    -0.1418 H       
 153 H153           4.6623    -1.0983    -2.1692 H       
 154 H154           6.9569     2.3468     1.7693 H       
 155 H155           4.6958    -3.7307    11.3125 H       
 156 H156          -2.0658    -7.5475     2.7172 H       
 157 H157          -9.9957    -7.4714     0.9617 H       
 158 H158           1.4585    -1.1793    12.7389 H       
 159 H159           5.1984     6.8250     6.6712 H       
 160 H160          -7.9205    -0.8100    -6.8989 H       
@<TRIPOS>BOND
   1    1   17 1
   2    1   38 1
   3    1   40 2
   4    1   41 2
   5    2   18 1
   6    2   39 1
   7    2   42 2
   8    2   43 2
   9    3   22 1
  10    3   44 1
  11    3   45 2
  12    3   46 2
  13    4   25 1
  14    4   47 1
  15    4   50 2
  16    4   51 2
  17    5   26 1
  18    5   48 1
  19    5   53 2
  20    5   54 2
  21    6   27 1
  22    6   49 1
  23    6   55 2
  24    6   56 2
  25    7   28 1
  26    7   52 1
  27    7   57 2
  28    7   58 2
  29    8   32 1
  30    8   59 1
  31    8   60 2
  32    8   61 2
  33    9   35 1
  34    9   62 1
  35    9   63 2
  36    9   64 2
  37   10   65 1
  38   10   72 1
  39   11   68 1
  40   11   69 1
  41   12   69 1
  42   12   70 1
  43   13   72 1
  44   13   80 1
  45   14   77 1
  46   14   78 1
  47   15   77 1
  48   15   79 1
  49   16   74 1
  50   16   82 1
  51   17   66 1
  52   18   67 1
  53   19   95 1
  54   19   71 1
  55   20   82 1
  56   20   89 1
  57   21   96 1
  58   21   73 1
  59   22   76 1
  60   23   97 1
  61   23   75 1
  62   24   84 1
  63   24   90 1
  64   25   81 1
  65   26   83 1
  66   27   85 1
  67   28   86 1
  68   29   98 1
  69   29   87 1
  70   30   99 1
  71   30   88 1
  72   31  100 1
  73   31   90 1
  74   32   92 1
  75   33   91 1
  76   33  141 1
  77   34   93 1
  78   34  142 1
  79   35   94 1
  80   36   91 2
  81   37   93 2
  82   38  152 1
  83   39  153 1
  84   44  154 1
  85   47  155 1
  86   48  156 1
  87   49  157 1
  88   52  158 1
  89   59  159 1
  90   62  160 1
  91   65   66 1
  92   65  101 1
  93   65   68 1
  94   66   67 1
  95   66  102 1
  96   67   69 1
  97   67  103 1
  98   68   83 1
  99   68  104 1
 100   69  105 1
 101   70   71 1
 102   70  106 1
 103   70   78 1
 104   71   76 1
 105   71  107 1
 106   72   73 1
 107   72  108 1
 108   73   75 1
 109   73  109 1
 110   74   75 1
 111   74  110 1
 112   74   80 1
 113   75  111 1
 114   76   77 1
 115   76  112 1
 116   77  113 1
 117   78   91 1
 118   78  114 1
 119   79   81 1
 120   79  115 1
 121   79   84 1
 122   80   93 1
 123   80  116 1
 124   81   86 1
 125   81  117 1
 126   82   85 1
 127   82  118 1
 128   83  119 1
 129   83  120 1
 130   84   92 1
 131   84  121 1
 132   85   87 1
 133   85  122 1
 134   86   90 1
 135   86  123 1
 136   87   88 1
 137   87  124 1
 138   88   89 1
 139   88  125 1
 140   89   94 1
 141   89  126 1
 142   90  127 1
 143   92  128 1
 144   92  129 1
 145   94  130 1
 146   94  131 1
 147   95  132 1
 148   95  133 1
 149   95  134 1
 150   96  135 1
 151   96  136 1
 152   96  137 1
 153   97  138 1
 154   97  139 1
 155   97  140 1
 156   98  143 1
 157   98  144 1
 158   98  145 1
 159   99  146 1
 160   99  147 1
 161   99  148 1
 162  100  149 1
 163  100  150 1
 164  100  151 1

#	End of record

