#	Name: ASD05940012
#	Creating user name:	WinNT
#	Creation time:	15. 06. 2019 21:04

#	Modifying user name:	WinNT
#	Modification time:	15. 06. 2019 21:04

#	Program:	/corina/corina34_cracker 3.40 0067  02.08.2006

@<TRIPOS>MOLECULE
ASD05940012
  63   66    0    0    0
SMALL
NO_CHARGES


@<TRIPOS>ATOM
   1 N1            -0.0159     1.3181     0.0093 N.ar    
   2 C2             0.0021    -0.0041     0.0020 C.ar    
   3 N3             1.1319    -0.6930    -0.0101 N.ar    
   4 C4             2.3066    -0.0681    -0.0158 C.ar    
   5 C5             2.3274     1.3257    -0.0126 C.ar    
   6 C6             1.1197     2.0168     0.0022 C.ar    
   7 N7             3.4912    -0.7843    -0.0194 N.3     
   8 C8             4.5325    -0.1239    -0.8126 C.3     
   9 C9             4.6626     1.3202    -0.4024 C.2     
  10 N10            3.5574     2.0048    -0.0283 N.am    
  11 N11            1.0976     3.4049     0.0085 N.pl3   
  12 O12           -1.1750    -0.6756     0.0076 O.3     
  13 C13            3.2722    -2.1617    -0.4807 C.3     
  14 O14            5.7473     1.8634    -0.4080 O.2     
  15 C15            2.8581    -2.1464    -1.9296 C.ar    
  16 C16            3.8168    -2.2118    -2.9230 C.ar    
  17 C17            3.4369    -2.1977    -4.2523 C.ar    
  18 C18            2.0984    -2.1186    -4.5877 C.ar    
  19 C19            1.1393    -2.0541    -3.5939 C.ar    
  20 C20            1.5188    -2.0726    -2.2650 C.ar    
  21 N21           -0.8785    -3.3216    -4.0700 N.3     
  22 C22           -2.3474    -3.2792    -4.1907 C.3     
  23 C23           -2.7204    -4.0154    -5.4947 C.3     
  24 C24           -1.4889    -4.9245    -5.7473 C.3     
  25 C25           -0.3295    -4.0267    -5.2478 C.3     
  26 C26           -0.3200    -1.9674    -3.9596 C.3     
  27 C27           -2.3694     0.1089     0.0211 C.3     
  28 C28           -3.5876    -0.8168     0.0256 C.3     
  29 C29           -4.8663     0.0231     0.0401 C.3     
  30 C30           -6.0845    -0.9026     0.0446 C.3     
  31 C31            5.8680    -0.8364    -0.5896 C.3     
  32 H32            4.2697    -0.1768    -1.8692 H       
  33 H33            3.6126     2.9403     0.2223 H       
  34 H34            1.9298     3.9032     0.0026 H       
  35 H35            0.2500     3.8765     0.0188 H       
  36 H36            4.1947    -2.7322    -0.3724 H       
  37 H37            2.4867    -2.6244     0.1168 H       
  38 H38            4.8626    -2.2736    -2.6609 H       
  39 H39            4.1860    -2.2481    -5.0286 H       
  40 H40            1.8016    -2.1069    -5.6261 H       
  41 H41            0.7697    -2.0222    -1.4887 H       
  42 H42           -2.8042    -3.7811    -3.3378 H       
  43 H43           -2.6857    -2.2442    -4.2395 H       
  44 H44           -3.6198    -4.6150    -5.3550 H       
  45 H45           -2.8511    -3.3074    -6.3131 H       
  46 H46           -1.5534    -5.8411    -5.1610 H       
  47 H47           -1.3800    -5.1484    -6.8085 H       
  48 H48           -0.0439    -3.3116    -6.0192 H       
  49 H49            0.5262    -4.6373    -4.9597 H       
  50 H50           -0.8559    -1.4152    -3.1876 H       
  51 H51           -0.4254    -1.4520    -4.9143 H       
  52 H52           -2.3840     0.7330     0.9146 H       
  53 H53           -2.3979     0.7426    -0.8653 H       
  54 H54           -3.5729    -1.4409    -0.8679 H       
  55 H55           -3.5591    -1.4505     0.9120 H       
  56 H56           -4.8810     0.6473     0.9336 H       
  57 H57           -4.8948     0.6569    -0.8463 H       
  58 H58           -6.9955    -0.3042     0.0549 H       
  59 H59           -6.0698    -1.5267    -0.8489 H       
  60 H60           -6.0560    -1.5363     0.9309 H       
  61 H61            5.7801    -1.8780    -0.8985 H       
  62 H62            6.6438    -0.3470    -1.1785 H       
  63 H63            6.1315    -0.7918     0.4671 H       
@<TRIPOS>BOND
   1    1    2 ar
   2    1    6 ar
   3    2    3 ar
   4    2   12 1
   5    3    4 ar
   6    4    5 ar
   7    4    7 1
   8    5    6 ar
   9    5   10 1
  10    6   11 1
  11    7    8 1
  12    7   13 1
  13    8    9 1
  14    8   31 1
  15    8   32 1
  16    9   10 am
  17    9   14 2
  18   10   33 1
  19   11   34 1
  20   11   35 1
  21   12   27 1
  22   13   15 1
  23   13   36 1
  24   13   37 1
  25   15   16 ar
  26   15   20 ar
  27   16   17 ar
  28   16   38 1
  29   17   18 ar
  30   17   39 1
  31   18   19 ar
  32   18   40 1
  33   19   20 ar
  34   19   26 1
  35   20   41 1
  36   21   22 1
  37   21   26 1
  38   21   25 1
  39   22   23 1
  40   22   42 1
  41   22   43 1
  42   23   24 1
  43   23   44 1
  44   23   45 1
  45   24   25 1
  46   24   46 1
  47   24   47 1
  48   25   48 1
  49   25   49 1
  50   26   50 1
  51   26   51 1
  52   27   28 1
  53   27   52 1
  54   27   53 1
  55   28   29 1
  56   28   54 1
  57   28   55 1
  58   29   30 1
  59   29   56 1
  60   29   57 1
  61   30   58 1
  62   30   59 1
  63   30   60 1
  64   31   61 1
  65   31   62 1
  66   31   63 1

#	End of record

