#	Name: ASD00960286
#	Creating user name:	WinNT
#	Creation time:	15. 06. 2019 18:53

#	Modifying user name:	WinNT
#	Modification time:	15. 06. 2019 18:53

#	Program:	/corina/corina34_cracker 3.40 0067  02.08.2006

@<TRIPOS>MOLECULE
ASD00960286
  41   44    0    0    0
SMALL
NO_CHARGES


@<TRIPOS>ATOM
   1 C1            -0.0167     1.3784     0.0096 C.2     
   2 C2             0.0021    -0.0041     0.0020 C.2     
   3 N3             1.2772     1.8201    -0.0004 N.pl3   
   4 C4             2.1093     0.7460    -0.0004 C.2     
   5 C5             1.3583    -0.3982    -0.0066 C.2     
   6 N6             1.7776     3.1315     0.0043 N.2     
   7 C7             3.0427     3.3120    -0.2321 C.2     
   8 N8             3.8851     2.2618    -0.5241 N.pl3   
   9 C9             3.6109     0.9183     0.0171 C.3     
  10 N10            4.1131     0.8181     1.3940 N.3     
  11 C11            1.8702    -1.7853    -0.0203 C.2     
  12 N12            1.1093    -2.9176    -0.0264 N.pl3   
  13 C13            1.9745    -3.9818    -0.0390 C.2     
  14 C14            3.2227    -3.4754    -0.0402 C.2     
  15 N15            3.1366    -2.1385    -0.0345 N.2     
  16 C16           -1.2133     2.2222     0.0201 C.2     
  17 O17           -2.3173     1.7118     0.0233 O.2     
  18 O18           -1.0912     3.5656     0.0263 O.3     
  19 C19           -2.3200     4.3391     0.0367 C.3     
  20 C20           -1.9883     5.8091     0.0424 C.ar    
  21 C21           -1.8423     6.4894    -1.1521 C.ar    
  22 C22           -1.5380     7.8378    -1.1468 C.ar    
  23 C23           -1.3800     8.5060     0.0529 C.ar    
  24 C24           -1.5268     7.8259     1.2474 C.ar    
  25 C25           -1.8354     6.4785     1.2422 C.ar    
  26 H26           -0.8572    -0.6583     0.0026 H       
  27 H27            3.4449     4.3138    -0.1990 H       
  28 H28            4.6612     2.4069    -1.0876 H       
  29 H29            4.0812     0.1602    -0.6092 H       
  30 H30            5.1087     0.9783     1.4284 H       
  31 H31            3.6231     1.4545     2.0048 H       
  32 H32            0.1403    -2.9617    -0.0223 H       
  33 H33            1.7059    -5.0278    -0.0461 H       
  34 H34            4.1374    -4.0495    -0.0483 H       
  35 H35           -2.9059     4.1023    -0.8515 H       
  36 H36           -2.8966     4.0932     0.9284 H       
  37 H37           -1.9658     5.9673    -2.0894 H       
  38 H38           -1.4233     8.3691    -2.0800 H       
  39 H39           -1.1415     9.5593     0.0570 H       
  40 H40           -1.4030     8.3479     2.1848 H       
  41 H41           -1.9538     5.9480     2.1754 H       
@<TRIPOS>BOND
   1    1    2 2
   2    1    3 1
   3    1   16 1
   4    2    5 1
   5    2   26 1
   6    3    4 1
   7    3    6 1
   8    4    5 2
   9    4    9 1
  10    5   11 1
  11    6    7 2
  12    7    8 1
  13    7   27 1
  14    8    9 1
  15    8   28 1
  16    9   10 1
  17    9   29 1
  18   10   30 1
  19   10   31 1
  20   11   12 1
  21   11   15 2
  22   12   13 1
  23   12   32 1
  24   13   14 2
  25   13   33 1
  26   14   15 1
  27   14   34 1
  28   16   17 2
  29   16   18 1
  30   18   19 1
  31   19   20 1
  32   19   35 1
  33   19   36 1
  34   20   21 ar
  35   20   25 ar
  36   21   22 ar
  37   21   37 1
  38   22   23 ar
  39   22   38 1
  40   23   24 ar
  41   23   39 1
  42   24   25 ar
  43   24   40 1
  44   25   41 1

#	End of record

