#	Name: ASD03091939
#	Creating user name:	WinNT
#	Creation time:	15. 06. 2019 20:31

#	Modifying user name:	WinNT
#	Modification time:	15. 06. 2019 20:31

#	Program:	/corina/corina34_cracker 3.40 0067  02.08.2006

@<TRIPOS>MOLECULE
ASD03091939
  50   54    0    0    0
SMALL
NO_CHARGES


@<TRIPOS>ATOM
   1 C1            -0.0170     1.3999     0.0097 C.ar    
   2 C2            -1.2282     2.0682     0.0306 C.ar    
   3 C3            -2.4087     1.3495     0.0434 C.ar    
   4 C4            -2.3915    -0.0359     0.0355 C.ar    
   5 C5            -1.1919    -0.7184     0.0153 C.ar    
   6 C6             0.0021    -0.0041     0.0020 C.ar    
   7 O7             1.1631     2.0666     0.0021 O.3     
   8 C8             2.2621     1.4580     0.6803 C.3     
   9 N9             2.4080     0.0565     0.2862 N.am    
  10 C10            1.3141    -0.6821    -0.0142 C.2     
  11 C11           -3.6893    -0.8017     0.0496 C.3     
  12 C12           -4.1419    -1.0491    -1.3664 C.ar    
  13 C13           -4.9530    -0.1332    -2.0096 C.ar    
  14 C14           -3.7436    -2.1960    -2.0389 C.ar    
  15 C15           -4.1807    -2.3855    -3.3381 C.ar    
  16 C16           -5.0013    -1.4235    -3.9235 C.ar    
  17 N17           -5.3555    -0.3380    -3.2477 N.ar    
  18 O18            1.4084    -1.8632    -0.2876 O.2     
  19 C19            3.6810    -0.5216     0.2197 C.ar    
  20 C20            4.2204    -1.1471     1.3355 C.ar    
  21 C21           -5.4778    -1.6116    -5.3155 C.2     
  22 C22            5.4768    -1.7171     1.2668 C.ar    
  23 C23            4.4062    -0.4759    -0.9661 C.ar    
  24 C24            5.6635    -1.0487    -1.0275 C.ar    
  25 C25            6.1986    -1.6655     0.0884 C.ar    
  26 C26           -5.1882    -2.7061    -6.1544 C.2     
  27 N27           -5.7867    -2.5091    -7.2988 N.2     
  28 N28           -6.4762    -1.2922    -7.2372 N.pl3   
  29 C29           -6.2819    -0.7587    -6.0155 C.2     
  30 F30            3.8832     0.1268    -2.0563 F       
  31 C31           -7.2765    -0.7034    -8.3137 C.3     
  32 H32           -1.2512     3.1480     0.0371 H       
  33 H33           -3.3534     1.8726     0.0602 H       
  34 H34           -1.1802    -1.7983     0.0098 H       
  35 H35            3.1773     1.9965     0.4345 H       
  36 H36            2.0935     1.5120     1.7559 H       
  37 H37           -3.5428    -1.7557     0.5561 H       
  38 H38           -4.4471    -0.2227     0.5774 H       
  39 H39           -5.2613     0.7623    -1.4905 H       
  40 H40           -3.1065    -2.9241    -1.5590 H       
  41 H41           -3.8895    -3.2665    -3.8908 H       
  42 H42            3.6582    -1.1876     2.2568 H       
  43 H43            5.8962    -2.2037     2.1350 H       
  44 H44            6.2280    -1.0140    -1.9476 H       
  45 H45            7.1807    -2.1119     0.0383 H       
  46 H46           -4.5776    -3.5588    -5.8965 H       
  47 H47           -6.6866     0.1758    -5.6559 H       
  48 H48           -8.3076    -1.0465    -8.2293 H       
  49 H49           -7.2476     0.3834    -8.2352 H       
  50 H50           -6.8696    -1.0089    -9.2777 H       
@<TRIPOS>BOND
   1    1    6 ar
   2    1    7 1
   3    1    2 ar
   4    2    3 ar
   5    2   32 1
   6    3    4 ar
   7    3   33 1
   8    4    5 ar
   9    4   11 1
  10    5    6 ar
  11    5   34 1
  12    6   10 1
  13    7    8 1
  14    8    9 1
  15    8   35 1
  16    8   36 1
  17    9   10 am
  18    9   19 1
  19   10   18 2
  20   11   12 1
  21   11   37 1
  22   11   38 1
  23   12   14 ar
  24   12   13 ar
  25   13   17 ar
  26   13   39 1
  27   14   15 ar
  28   14   40 1
  29   15   16 ar
  30   15   41 1
  31   16   17 ar
  32   16   21 1
  33   19   23 ar
  34   19   20 ar
  35   20   22 ar
  36   20   42 1
  37   21   29 2
  38   21   26 1
  39   22   25 ar
  40   22   43 1
  41   23   24 ar
  42   23   30 1
  43   24   25 ar
  44   24   44 1
  45   25   45 1
  46   26   27 2
  47   26   46 1
  48   27   28 1
  49   28   29 1
  50   28   31 1
  51   29   47 1
  52   31   48 1
  53   31   49 1
  54   31   50 1

#	End of record

