#	Name: ASD04590101
#	Creating user name:	WinNT
#	Creation time:	15. 06. 2019 20:50

#	Modifying user name:	WinNT
#	Modification time:	15. 06. 2019 20:50

#	Program:	/corina/corina34_cracker 3.40 0067  02.08.2006

@<TRIPOS>MOLECULE
ASD04590101
  44   45    0    0    0
SMALL
NO_CHARGES


@<TRIPOS>ATOM
   1 C1            -0.0168     1.3877     0.0097 C.ar    
   2 C2             0.0021    -0.0041     0.0020 C.ar    
   3 C3             1.2127    -0.6772    -0.0132 C.ar    
   4 C4             2.3989     0.0335    -0.0207 C.ar    
   5 C5             2.3802     1.4154    -0.0126 C.ar    
   6 C6             1.1751     2.0936     0.0021 C.ar    
   7 O7            -1.1654    -0.7015     0.0099 O.3     
   8 O8            -1.2028     2.0531     0.0189 O.3     
   9 C9             3.6759     2.1849    -0.0203 C.3     
  10 C10            4.1008     2.4536    -1.4654 C.3     
  11 C11            5.3477     3.3403    -1.4738 C.3     
  12 C12            4.4139     1.1268    -2.1600 C.3     
  13 C13            5.7726     3.6090    -2.9189 C.3     
  14 C14            5.0346     4.6671    -0.7792 C.3     
  15 C15            7.0683     4.3785    -2.9266 C.ar    
  16 C16            8.2734     3.7004    -2.9417 C.ar    
  17 C17            9.4653     4.4062    -2.9493 C.ar    
  18 C18            9.4464     5.7980    -2.9417 C.ar    
  19 C19            8.2358     6.4711    -2.9265 C.ar    
  20 C20            7.0495     5.7605    -2.9243 C.ar    
  21 O21           10.6512     3.7408    -2.9638 O.3     
  22 O22           10.6139     6.4954    -2.9486 O.3     
  23 H23            1.2301    -1.7570    -0.0188 H       
  24 H24            3.3421    -0.4925    -0.0325 H       
  25 H25            1.1632     3.1735     0.0076 H       
  26 H26           -1.5118    -0.8984    -0.8712 H       
  27 H27           -1.5416     2.2408     0.9049 H       
  28 H28            3.5387     3.1327     0.5002 H       
  29 H29            4.4475     1.6024     0.4830 H       
  30 H30            3.2923     2.9585    -1.9940 H       
  31 H31            6.1562     2.8354    -0.9452 H       
  32 H32            3.5257     0.4951    -2.1539 H       
  33 H33            4.7167     1.3182    -3.1894 H       
  34 H34            5.2225     0.6219    -1.6313 H       
  35 H35            5.9098     2.6612    -3.4394 H       
  36 H36            5.0010     4.1916    -3.4222 H       
  37 H37            4.7318     4.4757     0.2502 H       
  38 H38            5.9228     5.2989    -0.7853 H       
  39 H39            4.2260     5.1721    -1.3079 H       
  40 H40            8.2853     2.6204    -2.9473 H       
  41 H41            8.2184     7.5510    -2.9202 H       
  42 H42            6.1063     6.2865    -2.9170 H       
  43 H43           10.9860     3.5528    -3.8513 H       
  44 H44           10.9434     6.7019    -3.8340 H       
@<TRIPOS>BOND
   1    1    2 ar
   2    1    6 ar
   3    1    8 1
   4    2    3 ar
   5    2    7 1
   6    3    4 ar
   7    3   23 1
   8    4    5 ar
   9    4   24 1
  10    5    6 ar
  11    5    9 1
  12    6   25 1
  13    7   26 1
  14    8   27 1
  15    9   10 1
  16    9   28 1
  17    9   29 1
  18   10   11 1
  19   10   12 1
  20   10   30 1
  21   11   13 1
  22   11   14 1
  23   11   31 1
  24   12   32 1
  25   12   33 1
  26   12   34 1
  27   13   15 1
  28   13   35 1
  29   13   36 1
  30   14   37 1
  31   14   38 1
  32   14   39 1
  33   15   16 ar
  34   15   20 ar
  35   16   17 ar
  36   16   40 1
  37   17   18 ar
  38   17   21 1
  39   18   19 ar
  40   18   22 1
  41   19   20 ar
  42   19   41 1
  43   20   42 1
  44   21   43 1
  45   22   44 1

#	End of record

