#	Name: ASD03092893
#	Creating user name:	WinNT
#	Creation time:	15. 06. 2019 20:33

#	Modifying user name:	WinNT
#	Modification time:	15. 06. 2019 20:33

#	Program:	/corina/corina34_cracker 3.40 0067  02.08.2006

@<TRIPOS>MOLECULE
ASD03092893
  48   50    0    0    0
SMALL
NO_CHARGES


@<TRIPOS>ATOM
   1 C1            -0.0228     0.9492     0.2778 C.3     
   2 C2             0.0158    -0.5738     0.1366 C.3     
   3 C3             0.7684    -1.1771     1.3243 C.3     
   4 F4            -1.2909    -1.0729     0.1103 F       
   5 C5             0.7201    -0.9419    -1.1438 C.2     
   6 O6             1.7732    -1.5423    -1.1057 O.2     
   7 N7             0.1797    -0.6040    -2.3313 N.am    
   8 C8             0.8643    -0.9619    -3.5761 C.3     
   9 H9             1.9425    -0.9009    -3.4282 H       
  10 C10            0.4841    -2.3892    -3.9751 C.3     
  11 C11            1.1992    -2.7630    -5.2750 C.3     
  12 C12            0.7809    -1.7950    -6.3836 C.3     
  13 H13            1.2903    -2.0612    -7.3098 H       
  14 C14            1.1611    -0.3677    -5.9847 C.3     
  15 C15            0.4461     0.0061    -4.6847 C.3     
  16 N16           -0.6682    -1.8769    -6.5824 N.pl3   
  17 C17           -1.6235    -1.6163    -5.6536 C.2     
  18 N18           -2.7967    -1.7941    -6.1929 N.2     
  19 C19           -2.6424    -2.1726    -7.4782 C.2     
  20 C20           -1.3088    -2.2241    -7.7393 C.2     
  21 Cl21          -0.5641    -2.6508    -9.2482 Cl      
  22 C22           -3.7330    -2.4744    -8.4375 C.ar    
  23 C23           -3.5856    -2.1557    -9.7862 C.ar    
  24 C24           -4.6027    -2.4382   -10.6749 C.ar    
  25 C25           -5.7692    -3.0372   -10.2281 C.ar    
  26 F26           -6.7625    -3.3120   -11.1017 F       
  27 C27           -5.9201    -3.3558    -8.8883 C.ar    
  28 C28           -4.9058    -3.0826    -7.9936 C.ar    
  29 H29            0.9953     1.3381     0.2983 H       
  30 H30           -0.5589     1.3791    -0.5683 H       
  31 H31           -0.5321     1.2155     1.2039 H       
  32 H32            0.2590    -0.9109     2.2504 H       
  33 H33            0.7959    -2.2621     1.2237 H       
  34 H34            1.7864    -0.7882     1.3448 H       
  35 H35           -0.6626    -0.1238    -2.3618 H       
  36 H36            0.7821    -3.0788    -3.1853 H       
  37 H37           -0.5941    -2.4501    -4.1230 H       
  38 H38            2.2774    -2.7020    -5.1271 H       
  39 H39            0.9283    -3.7798    -5.5593 H       
  40 H40            2.2393    -0.3067    -5.8368 H       
  41 H41            0.8631     0.3219    -6.7744 H       
  42 H42           -0.6321    -0.0549    -4.8326 H       
  43 H43            0.7169     1.0229    -4.4004 H       
  44 H44           -1.4410    -1.3119    -4.6336 H       
  45 H45           -2.6768    -1.6880   -10.1353 H       
  46 H46           -4.4893    -2.1916   -11.7202 H       
  47 H47           -6.8314    -3.8224    -8.5443 H       
  48 H48           -5.0225    -3.3353    -6.9501 H       
@<TRIPOS>BOND
   1    1    2 1
   2    1   29 1
   3    1   30 1
   4    1   31 1
   5    2    3 1
   6    2    4 1
   7    2    5 1
   8    3   32 1
   9    3   33 1
  10    3   34 1
  11    5    6 2
  12    5    7 am
  13    7    8 1
  14    7   35 1
  15    8    9 1
  16    8   15 1
  17    8   10 1
  18   10   11 1
  19   10   36 1
  20   10   37 1
  21   11   12 1
  22   11   38 1
  23   11   39 1
  24   12   13 1
  25   12   14 1
  26   12   16 1
  27   14   15 1
  28   14   40 1
  29   14   41 1
  30   15   42 1
  31   15   43 1
  32   16   20 1
  33   16   17 1
  34   17   18 2
  35   17   44 1
  36   18   19 1
  37   19   20 2
  38   19   22 1
  39   20   21 1
  40   22   28 ar
  41   22   23 ar
  42   23   24 ar
  43   23   45 1
  44   24   25 ar
  45   24   46 1
  46   25   26 1
  47   25   27 ar
  48   27   28 ar
  49   27   47 1
  50   28   48 1

#	End of record

