#	Name: ASD02580001
#	Creating user name:	WinNT
#	Creation time:	15. 06. 2019 20:25

#	Modifying user name:	WinNT
#	Modification time:	15. 06. 2019 20:25

#	Program:	/corina/corina34_cracker 3.40 0067  02.08.2006

@<TRIPOS>MOLECULE
ASD02580001
  58   60    0    0    0
SMALL
NO_CHARGES


@<TRIPOS>ATOM
   1 C1             0.1815     1.5218     0.2024 C.3     
   2 C2             0.2968    -0.0182     0.3116 C.3     
   3 C3             0.1535    -0.3016     1.8195 C.3     
   4 O4             0.0243     0.9673     2.4825 O.3     
   5 C5            -0.5403     1.8879     1.5242 C.3     
   6 C6            -0.8300    -0.6963    -0.4703 C.3     
   7 O7             1.5700    -0.4594    -0.1641 O.3     
   8 C8             1.3962    -1.0322     2.3320 C.3     
   9 O9             1.2055    -1.3936     3.7013 O.3     
  10 O10            1.4955     2.1368     0.1420 O.3     
  11 C11            1.5990     3.2873    -0.5416 C.2     
  12 O12            0.6239     3.7648    -1.0719 O.2     
  13 C13            2.9313     3.9836    -0.6476 C.3     
  14 C14            3.9385     3.0561    -1.3305 C.3     
  15 C15            2.7743     5.2622    -1.4731 C.3     
  16 C16            5.3230     3.7071    -1.3152 C.3     
  17 C17            1.8870     6.2523    -0.7160 C.3     
  18 C18            1.6370     7.4838    -1.5888 C.3     
  19 C19            6.3532     2.7279    -1.8814 C.3     
  20 N20           -0.2485     3.2722     1.9050 N.pl3   
  21 C21           -0.9606     4.3840     1.5323 C.ar    
  22 C22           -0.3135     5.4774     2.1318 C.ar    
  23 N23            0.7404     4.9858     2.8265 N.2     
  24 C24            0.7769     3.6911     2.6995 C.2     
  25 N25           -2.0393     4.6012     0.7866 N.ar    
  26 C26           -2.4980     5.8222     0.6099 C.ar    
  27 N27           -1.9237     6.8806     1.1523 N.ar    
  28 C28           -0.8407     6.7619     1.9130 C.ar    
  29 N29           -0.2459     7.8768     2.4771 N.pl3   
  30 H30           -0.4193     1.8066    -0.6613 H       
  31 H31           -0.7353    -0.9063     2.0001 H       
  32 H32           -1.6151     1.7330     1.4303 H       
  33 H33           -0.7671    -0.4101    -1.5201 H       
  34 H34           -0.7331    -1.7784    -0.3823 H       
  35 H35           -1.7925    -0.3836    -0.0654 H       
  36 H36            1.6966    -1.4170    -0.1186 H       
  37 H37            1.5597    -1.9316     1.7383 H       
  38 H38            2.2636    -0.3777     2.2464 H       
  39 H39            1.9558    -1.8615     4.0928 H       
  40 H40            3.2892     4.2370     0.3502 H       
  41 H41            3.9776     2.1064    -0.7969 H       
  42 H42            3.6306     2.8813    -2.3613 H       
  43 H43            3.7544     5.7082    -1.6421 H       
  44 H44            2.3144     5.0216    -2.4317 H       
  45 H45            5.3066     4.6103    -1.9252 H       
  46 H46            5.5918     3.9653    -0.2909 H       
  47 H47            0.9355     5.7777    -0.4762 H       
  48 H48            2.3845     6.5550     0.2054 H       
  49 H49            1.0049     8.1892    -1.0494 H       
  50 H50            2.5885     7.9584    -1.8286 H       
  51 H51            1.1396     7.1812    -2.5103 H       
  52 H52            7.3396     3.1916    -1.8705 H       
  53 H53            6.3697     1.8247    -1.2714 H       
  54 H54            6.0844     2.4697    -2.9057 H       
  55 H55            1.5153     3.0448     3.1505 H       
  56 H56           -3.3767     5.9638    -0.0019 H       
  57 H57           -0.6193     8.7580     2.3190 H       
  58 H58            0.5444     7.7772     3.0306 H       
@<TRIPOS>BOND
   1    1    2 1
   2    1   10 1
   3    1    5 1
   4    1   30 1
   5    2    6 1
   6    2    7 1
   7    2    3 1
   8    3    4 1
   9    3    8 1
  10    3   31 1
  11    4    5 1
  12    5   20 1
  13    5   32 1
  14    6   33 1
  15    6   34 1
  16    6   35 1
  17    7   36 1
  18    8    9 1
  19    8   37 1
  20    8   38 1
  21    9   39 1
  22   10   11 1
  23   11   12 2
  24   11   13 1
  25   13   14 1
  26   13   15 1
  27   13   40 1
  28   14   16 1
  29   14   41 1
  30   14   42 1
  31   15   17 1
  32   15   43 1
  33   15   44 1
  34   16   19 1
  35   16   45 1
  36   16   46 1
  37   17   18 1
  38   17   47 1
  39   17   48 1
  40   18   49 1
  41   18   50 1
  42   18   51 1
  43   19   52 1
  44   19   53 1
  45   19   54 1
  46   20   21 1
  47   20   24 1
  48   21   22 ar
  49   21   25 ar
  50   22   23 1
  51   22   28 ar
  52   23   24 2
  53   24   55 1
  54   25   26 ar
  55   26   27 ar
  56   26   56 1
  57   27   28 ar
  58   28   29 1
  59   29   57 1
  60   29   58 1

#	End of record

