#	Name: ASD01410420
#	Creating user name:	WinNT
#	Creation time:	15. 06. 2019 19:17

#	Modifying user name:	WinNT
#	Modification time:	15. 06. 2019 19:17

#	Program:	/corina/corina34_cracker 3.40 0067  02.08.2006

@<TRIPOS>MOLECULE
ASD01410420
  64   66    0    0    0
SMALL
NO_CHARGES


@<TRIPOS>ATOM
   1 C1            -5.0351     4.2397     0.5832 C.3     
   2 C2            -6.2848     3.3585     0.6342 C.3     
   3 C3            -7.0139     3.5837     1.9603 C.3     
   4 C4            -7.2131     3.7223    -0.5264 C.3     
   5 C5            -5.8926     1.9440     0.5239 C.1     
   6 C6            -5.5798     0.8159     0.4359 C.1     
   7 C7            -5.1982    -0.5602     0.3287 C.2     
   8 C8            -6.0628    -1.6163     0.3390 C.2     
   9 C9            -5.4665    -2.8487     0.2226 C.2     
  10 C10           -4.0958    -2.8094     0.1150 C.2     
  11 S11           -3.5475    -1.1395     0.1565 S.3     
  12 C12           -3.2561    -3.9395    -0.0149 C.2     
  13 O13           -1.9208    -3.7785    -0.1313 O.3     
  14 O14           -3.7372    -5.0576    -0.0216 O.2     
  15 N15           -6.1913    -4.0412     0.2146 N.am    
  16 C16           -6.3309    -4.7526     1.3508 C.2     
  17 O17           -5.7494    -4.4075     2.3577 O.2     
  18 C18           -7.2094    -5.9769     1.3702 C.3     
  19 C19           -7.6125    -6.2995     2.8146 C.3     
  20 C20           -8.6419    -7.4315     2.7885 C.3     
  21 C21           -8.1513    -8.5564     1.9248 C.2     
  22 C22           -7.1961    -8.4423     1.0587 C.2     
  23 C23           -6.4390    -7.1719     0.8044 C.3     
  24 C24           -6.8005    -4.5199    -1.0288 C.3     
  25 C25           -7.8991    -3.5485    -1.4654 C.3     
  26 C26           -8.5353    -4.0484    -2.7639 C.3     
  27 C27           -7.4667    -4.1338    -3.8555 C.3     
  28 C28           -6.3681    -5.1051    -3.4189 C.3     
  29 C29           -5.7319    -4.6053    -2.1204 C.3     
  30 C30           -8.8115    -9.9027     2.0756 C.3     
  31 O31           -8.0609    -4.6006    -5.0684 O.3     
  32 H32           -5.3256     5.2871     0.6648 H       
  33 H33           -4.3738     3.9805     1.4099 H       
  34 H34           -4.5157     4.0793    -0.3616 H       
  35 H35           -7.3043     4.6311     2.0420 H       
  36 H36           -7.9042     2.9559     1.9966 H       
  37 H37           -6.3526     3.3245     2.7871 H       
  38 H38           -6.6937     3.5619    -1.4711 H       
  39 H39           -8.1034     3.0945    -0.4900 H       
  40 H40           -7.5036     4.7697    -0.4447 H       
  41 H41           -7.1317    -1.4930     0.4319 H       
  42 H42           -1.4305    -4.6078    -0.2149 H       
  43 H43           -8.1026    -5.7964     0.7721 H       
  44 H44           -6.7347    -6.6154     3.3782 H       
  45 H45           -8.0511    -5.4160     3.2786 H       
  46 H46           -8.8018    -7.7978     3.8026 H       
  47 H47           -9.5837    -7.0543     2.3901 H       
  48 H48           -6.9271    -9.3160     0.4836 H       
  49 H49           -6.3051    -7.0399    -0.2693 H       
  50 H50           -5.4618    -7.2315     1.2836 H       
  51 H51           -7.2325    -5.5072    -0.8652 H       
  52 H52           -8.6604    -3.4877    -0.6877 H       
  53 H53           -7.4671    -2.5612    -1.6290 H       
  54 H54           -8.9673    -5.0356    -2.6003 H       
  55 H55           -9.3179    -3.3563    -3.0749 H       
  56 H56           -7.0347    -3.1465    -4.0191 H       
  57 H57           -6.8001    -6.0924    -3.2553 H       
  58 H58           -5.6068    -5.1660    -4.1966 H       
  59 H59           -5.2999    -3.6180    -2.2840 H       
  60 H60           -4.9493    -5.2973    -1.8094 H       
  61 H61           -9.6561    -9.9720     1.3901 H       
  62 H62           -8.0916   -10.6881     1.8457 H       
  63 H63           -9.1643   -10.0217     3.1000 H       
  64 H64           -7.4401    -4.6794    -5.8056 H       
@<TRIPOS>BOND
   1    1    2 1
   2    1   32 1
   3    1   33 1
   4    1   34 1
   5    2    4 1
   6    2    5 1
   7    2    3 1
   8    3   35 1
   9    3   36 1
  10    3   37 1
  11    4   38 1
  12    4   39 1
  13    4   40 1
  14    5    6 3
  15    6    7 1
  16    7    8 2
  17    7   11 1
  18    8    9 1
  19    8   41 1
  20    9   10 2
  21    9   15 1
  22   10   11 1
  23   10   12 1
  24   12   13 1
  25   12   14 2
  26   13   42 1
  27   15   16 am
  28   15   24 1
  29   16   17 2
  30   16   18 1
  31   18   19 1
  32   18   23 1
  33   18   43 1
  34   19   20 1
  35   19   44 1
  36   19   45 1
  37   20   21 1
  38   20   46 1
  39   20   47 1
  40   21   22 2
  41   21   30 1
  42   22   23 1
  43   22   48 1
  44   23   49 1
  45   23   50 1
  46   24   25 1
  47   24   29 1
  48   24   51 1
  49   25   26 1
  50   25   52 1
  51   25   53 1
  52   26   27 1
  53   26   54 1
  54   26   55 1
  55   27   28 1
  56   27   31 1
  57   27   56 1
  58   28   29 1
  59   28   57 1
  60   28   58 1
  61   29   59 1
  62   29   60 1
  63   30   61 1
  64   30   62 1
  65   30   63 1
  66   31   64 1

#	End of record

