#	Name: ASD03331266
#	Creating user name:	WinNT
#	Creation time:	15. 06. 2019 20:38

#	Modifying user name:	WinNT
#	Modification time:	15. 06. 2019 20:38

#	Program:	/corina/corina34_cracker 3.40 0067  02.08.2006

@<TRIPOS>MOLECULE
ASD03331266
  47   50    0    0    0
SMALL
NO_CHARGES


@<TRIPOS>ATOM
   1 N1            -0.0462     1.4947     0.5665 N.am    
   2 C2             0.0011     0.1483     1.1567 C.3     
   3 C3             0.5973    -0.8149     0.1248 C.3     
   4 N4             1.8906    -0.2934    -0.3372 N.3     
   5 C5             1.7306     0.9942    -1.0259 C.3     
   6 C6             1.1809     2.0316    -0.0411 C.3     
   7 C7            -1.1853     2.2150     0.5771 C.2     
   8 O8            -2.2148     1.7184     0.9916 O.2     
   9 N9            -1.1831     3.4859     0.1284 N.am    
  10 C10           -2.3853     4.1964     0.0329 C.ar    
  11 C11           -3.5689     3.5399    -0.2764 C.ar    
  12 N12           -4.7030     4.2057    -0.3677 N.ar    
  13 C13           -4.7617     5.5081    -0.1710 C.ar    
  14 C14           -3.6254     6.2314     0.1412 C.ar    
  15 C15           -2.4127     5.5714     0.2526 C.ar    
  16 C16            2.5748    -1.2687    -1.1966 C.3     
  17 C17            3.7680    -0.6162    -1.8458 C.ar    
  18 C18            5.0098    -0.6502    -1.2158 C.ar    
  19 N19            6.0698    -0.0932    -1.7498 N.ar    
  20 C20            6.0058     0.5345    -2.9279 C.ar    
  21 C21            4.7729     0.6056    -3.6230 C.ar    
  22 C22            3.6340     0.0045    -3.0554 C.ar    
  23 C23            7.1458     1.1305    -3.4956 C.ar    
  24 C24            7.0497     1.7630    -4.6966 C.ar    
  25 C25            5.8361     1.8321    -5.3781 C.ar    
  26 C26            4.7111     1.2667    -4.8605 C.ar    
  27 H27            0.6265     0.1617     2.0494 H       
  28 H28           -1.0073    -0.1728     1.4175 H       
  29 H29            0.7422    -1.7937     0.5820 H       
  30 H30           -0.0819    -0.9059    -0.7228 H       
  31 H31            2.6974     1.3275    -1.4032 H       
  32 H32            1.0356     0.8780    -1.8575 H       
  33 H33            0.9524     2.9556    -0.5723 H       
  34 H34            1.9197     2.2260     0.7364 H       
  35 H35           -0.3485     3.9081    -0.1284 H       
  36 H36           -3.5604     2.4731    -0.4444 H       
  37 H37           -5.7105     6.0172    -0.2553 H       
  38 H38           -3.6833     7.2981     0.3002 H       
  39 H39           -1.5101     6.1104     0.4997 H       
  40 H40            2.9062    -2.1144    -0.5941 H       
  41 H41            1.8880    -1.6186    -1.9673 H       
  42 H42            5.1018    -1.1483    -0.2619 H       
  43 H43            2.6789     0.0397    -3.5584 H       
  44 H44            8.0939     1.0868    -2.9803 H       
  45 H45            7.9282     2.2193    -5.1284 H       
  46 H46            5.7874     2.3408    -6.3295 H       
  47 H47            3.7764     1.3264    -5.3982 H       
@<TRIPOS>BOND
   1    1    2 1
   2    1    6 1
   3    1    7 am
   4    2    3 1
   5    2   27 1
   6    2   28 1
   7    3    4 1
   8    3   29 1
   9    3   30 1
  10    4    5 1
  11    4   16 1
  12    5    6 1
  13    5   31 1
  14    5   32 1
  15    6   33 1
  16    6   34 1
  17    7    8 2
  18    7    9 am
  19    9   10 1
  20    9   35 1
  21   10   11 ar
  22   10   15 ar
  23   11   12 ar
  24   11   36 1
  25   12   13 ar
  26   13   14 ar
  27   13   37 1
  28   14   15 ar
  29   14   38 1
  30   15   39 1
  31   16   17 1
  32   16   40 1
  33   16   41 1
  34   17   18 ar
  35   17   22 ar
  36   18   19 ar
  37   18   42 1
  38   19   20 ar
  39   20   21 ar
  40   20   23 ar
  41   21   22 ar
  42   21   26 ar
  43   22   43 1
  44   23   24 ar
  45   23   44 1
  46   24   25 ar
  47   24   45 1
  48   25   26 ar
  49   25   46 1
  50   26   47 1

#	End of record

