#	Name: ASD00171134
#	Creating user name:	WinNT
#	Creation time:	15. 06. 2019 18:33

#	Modifying user name:	WinNT
#	Modification time:	15. 06. 2019 18:33

#	Program:	/corina/corina34_cracker 3.40 0067  02.08.2006

@<TRIPOS>MOLECULE
ASD00171134
  54   58    0    0    0
SMALL
NO_CHARGES


@<TRIPOS>ATOM
   1 C1            -0.1752     1.3817    -0.0549 C.3     
   2 C2            -0.9736     1.7067     1.1812 C.2     
   3 C3            -1.3196     0.8023     2.0840 C.2     
   4 S4            -2.2404     1.5359     3.3847 S.3     
   5 C5            -2.1458     3.0854     2.6811 C.2     
   6 C6            -1.4344     3.0406     1.5044 C.2     
   7 N7            -2.7018     4.2279     3.2197 N.pl3   
   8 C8            -1.1799     4.2117     0.6659 C.2     
   9 O9            -0.1462     4.8418     0.7976 O.2     
  10 C10           -2.1779     4.6305    -0.3419 C.ar    
  11 C11           -1.8928     5.6811    -1.2159 C.ar    
  12 C12           -2.8271     6.0669    -2.1539 C.ar    
  13 C13           -4.0467     5.4146    -2.2295 C.ar    
  14 C14           -4.3354     4.3718    -1.3647 C.ar    
  15 C15           -3.4065     3.9731    -0.4267 C.ar    
  16 Cl16          -5.2182     5.9062    -3.4125 Cl      
  17 N17            1.1948     1.8890     0.0996 N.3     
  18 C18            2.0262     1.5194    -1.0536 C.3     
  19 C19            1.7923     1.4175     1.3565 C.3     
  20 C20            3.2725     0.7749    -0.5667 C.3     
  21 N21            2.8595    -0.4348     0.1587 N.3     
  22 C22            1.9816    -0.1002     1.2881 C.3     
  23 C23            4.0649     1.6856     0.3771 C.3     
  24 C24            3.1590     2.0841     1.5476 C.3     
  25 C25            3.9708    -1.1655     0.5876 C.ar    
  26 C26            4.6957    -0.7438     1.6948 C.ar    
  27 C27            5.7936    -1.4678     2.1164 C.ar    
  28 C28            6.1717    -2.6125     1.4369 C.ar    
  29 C29            5.4516    -3.0347     0.3332 C.ar    
  30 C30            4.3492    -2.3179    -0.0891 C.ar    
  31 Cl31           7.5523    -3.5201     1.9696 Cl      
  32 H32           -0.1487     0.3013    -0.1967 H       
  33 H33           -0.6406     1.8506    -0.9218 H       
  34 H34           -1.0692    -0.2467     2.0270 H       
  35 H35           -3.2498     4.1707     4.0181 H       
  36 H36           -2.5447     5.0882     2.8000 H       
  37 H37           -0.9424     6.1909    -1.1574 H       
  38 H38           -2.6077     6.8795    -2.8306 H       
  39 H39           -5.2881     3.8672    -1.4281 H       
  40 H40           -3.6326     3.1597     0.2469 H       
  41 H41            1.4552     0.8742    -1.7212 H       
  42 H42            2.3269     2.4204    -1.5883 H       
  43 H43            1.1355     1.6671     2.1899 H       
  44 H44            3.8892     0.4962    -1.4212 H       
  45 H45            2.4331    -0.4521     2.2157 H       
  46 H46            1.0133    -0.5812     1.1504 H       
  47 H47            4.9368     1.1514     0.7546 H       
  48 H48            4.3842     2.5792    -0.1592 H       
  49 H49            3.0387     3.1673     1.5650 H       
  50 H50            3.6025     1.7475     2.4847 H       
  51 H51            4.4012     0.1497     2.2253 H       
  52 H52            6.3578    -1.1402     2.9771 H       
  53 H53            5.7493    -3.9280    -0.1957 H       
  54 H54            3.7873    -2.6481    -0.9504 H       
@<TRIPOS>BOND
   1    1    2 1
   2    1   17 1
   3    1   32 1
   4    1   33 1
   5    2    3 2
   6    2    6 1
   7    3    4 1
   8    3   34 1
   9    4    5 1
  10    5    6 2
  11    5    7 1
  12    6    8 1
  13    7   35 1
  14    7   36 1
  15    8    9 2
  16    8   10 1
  17   10   11 ar
  18   10   15 ar
  19   11   12 ar
  20   11   37 1
  21   12   13 ar
  22   12   38 1
  23   13   14 ar
  24   13   16 1
  25   14   15 ar
  26   14   39 1
  27   15   40 1
  28   17   18 1
  29   17   19 1
  30   18   20 1
  31   18   41 1
  32   18   42 1
  33   19   22 1
  34   19   24 1
  35   19   43 1
  36   20   21 1
  37   20   23 1
  38   20   44 1
  39   21   22 1
  40   21   25 1
  41   22   45 1
  42   22   46 1
  43   23   24 1
  44   23   47 1
  45   23   48 1
  46   24   49 1
  47   24   50 1
  48   25   26 ar
  49   25   30 ar
  50   26   27 ar
  51   26   51 1
  52   27   28 ar
  53   27   52 1
  54   28   29 ar
  55   28   31 1
  56   29   30 ar
  57   29   53 1
  58   30   54 1

#	End of record

