#	Name: ASD07930617
#	Creating user name:	WinNT
#	Creation time:	15. 06. 2019 21:12

#	Modifying user name:	WinNT
#	Modification time:	15. 06. 2019 21:12

#	Program:	/corina/corina34_cracker 3.40 0067  02.08.2006

@<TRIPOS>MOLECULE
ASD07930617
  46   48    0    0    0
SMALL
NO_CHARGES


@<TRIPOS>ATOM
   1 C1            -0.9724     1.6421     0.8291 C.3     
   2 N2             0.1538     0.1806    -1.5175 N.2     
   3 N3            -1.3255    -1.5100    -0.8735 N.pl3   
   4 C4            -1.2120    -2.6612     0.0281 C.3     
   5 C5            -1.6370    -2.2405     1.4418 C.3     
   6 S6            -0.6089    -0.8267     1.9503 S.o2    
   7 N7            -0.7378     0.2072     0.6499 N.am    
   8 C8            -0.6124    -0.3582    -0.6112 C.2     
   9 C9             0.2380    -3.1487     0.0543 C.3     
  10 C10           -2.1084    -3.7710    -0.4575 C.ar    
  11 C11           -2.9490    -3.5588    -1.5323 C.ar    
  12 C12           -3.7748    -4.5818    -1.9794 C.ar    
  13 C13           -3.7534    -5.8163    -1.3445 C.ar    
  14 C14           -2.9111    -6.0245    -0.2697 C.ar    
  15 C15           -2.0844    -5.0050     0.1709 C.ar    
  16 O16           -1.2143    -0.1243     3.0269 O.2     
  17 O17            0.7649    -1.1886     1.9845 O.2     
  18 N18           -4.6282    -4.3685    -3.0689 N.am    
  19 C19           -5.8462    -4.9450    -3.0938 C.2     
  20 O20           -6.1718    -5.7129    -2.2132 O.2     
  21 C21           -6.8036    -4.6355    -4.2157 C.3     
  22 C22           -6.1618    -4.3980    -5.5842 C.3     
  23 C23           -8.1715    -5.3201    -4.1862 C.3     
  24 C24           -8.0559    -3.8263    -3.8728 C.3     
  25 F25           -1.2614    -5.2106     1.2224 F       
  26 H26           -0.0162     2.1603     0.9020 H       
  27 H27           -1.5308     2.0282    -0.0237 H       
  28 H28           -1.5448     1.8054     1.7422 H       
  29 H29            0.6482     0.9904    -1.3156 H       
  30 H30           -1.8977    -1.5597    -1.6552 H       
  31 H31           -2.6872    -1.9487     1.4382 H       
  32 H32           -1.4880    -3.0705     2.1325 H       
  33 H33            0.8850    -2.3458     0.4076 H       
  34 H34            0.3216    -4.0042     0.7245 H       
  35 H35            0.5404    -3.4435    -0.9506 H       
  36 H36           -2.9644    -2.5976    -2.0247 H       
  37 H37           -4.3951    -6.6131    -1.6905 H       
  38 H38           -2.8941    -6.9847     0.2245 H       
  39 H39           -4.3429    -3.8058    -3.8056 H       
  40 H40           -6.0152    -5.3537    -6.0875 H       
  41 H41           -6.8144    -3.7664    -6.1868 H       
  42 H42           -5.1986    -3.9049    -5.4531 H       
  43 H43           -8.6145    -5.6010    -5.1417 H       
  44 H44           -8.3791    -5.9944    -3.3553 H       
  45 H45           -8.1877    -3.5180    -2.8356 H       
  46 H46           -8.4229    -3.1249    -4.6221 H       
@<TRIPOS>BOND
   1    1    7 1
   2    1   26 1
   3    1   27 1
   4    1   28 1
   5    2    8 2
   6    2   29 1
   7    3    4 1
   8    3    8 1
   9    3   30 1
  10    4    5 1
  11    4    9 1
  12    4   10 1
  13    5    6 1
  14    5   31 1
  15    5   32 1
  16    6    7 am
  17    6   16 2
  18    6   17 2
  19    7    8 1
  20    9   33 1
  21    9   34 1
  22    9   35 1
  23   10   11 ar
  24   10   15 ar
  25   11   12 ar
  26   11   36 1
  27   12   13 ar
  28   12   18 1
  29   13   14 ar
  30   13   37 1
  31   14   15 ar
  32   14   38 1
  33   15   25 1
  34   18   19 am
  35   18   39 1
  36   19   20 2
  37   19   21 1
  38   21   22 1
  39   21   23 1
  40   21   24 1
  41   22   40 1
  42   22   41 1
  43   22   42 1
  44   23   24 1
  45   23   43 1
  46   23   44 1
  47   24   45 1
  48   24   46 1

#	End of record

