#	Name: ASD01916577
#	Creating user name:	WinNT
#	Creation time:	15. 06. 2019 20:07

#	Modifying user name:	WinNT
#	Modification time:	15. 06. 2019 20:07

#	Program:	/corina/corina34_cracker 3.40 0067  02.08.2006

@<TRIPOS>MOLECULE
ASD01916577
  48   51    0    0    0
SMALL
NO_CHARGES


@<TRIPOS>ATOM
   1 C1             0.0683     2.1849    -0.1204 C.ar    
   2 C2            -0.0786     0.7870     0.0337 C.ar    
   3 C3            -1.3488     0.2143     0.1012 C.ar    
   4 C4            -2.4560     1.0065     0.0158 C.ar    
   5 C5            -2.3288     2.3955    -0.1371 C.ar    
   6 C6            -1.0692     2.9860    -0.2040 C.ar    
   7 N7             1.3155     2.7145    -0.1890 N.2     
   8 C8             2.3806     1.9741    -0.1337 C.2     
   9 N9             2.3252     0.6158     0.0176 N.am    
  10 C10            1.1437    -0.0264     0.1136 C.2     
  11 C11           -3.5023     3.2115    -0.2256 C.1     
  12 O12            1.0908    -1.2337     0.2612 O.2     
  13 C13           -4.4643     3.8804    -0.2981 C.1     
  14 C14           -5.6377     4.6965    -0.3865 C.ar    
  15 N15           -5.5170     6.0125    -0.5314 N.ar    
  16 C16           -6.5717     6.7965    -0.6169 C.ar    
  17 C17           -7.8517     6.2754    -0.5586 C.ar    
  18 C18           -8.0246     4.9061    -0.4077 C.ar    
  19 C19           -6.9014     4.1032    -0.3256 C.ar    
  20 C20            3.7468     2.6136    -0.2509 C.3     
  21 C21            4.3309     2.2924    -1.6244 C.3     
  22 C22            5.0935     0.9794    -1.6028 C.3     
  23 C23            4.1850    -0.2077    -1.3318 C.3     
  24 C24            3.5865    -0.1329     0.0716 C.3     
  25 O25            5.7339     0.7943    -2.8667 O.3     
  26 C26            6.1637     1.0449    -0.5114 C.3     
  27 C27            6.6645     1.8251    -3.2033 C.3     
  28 H28           -1.4554    -0.8538     0.2205 H       
  29 H29           -3.4385     0.5609     0.0660 H       
  30 H30           -0.9746     4.0556    -0.3194 H       
  31 H31           -6.4353     7.8614    -0.7339 H       
  32 H32           -8.7092     6.9281    -0.6294 H       
  33 H33           -9.0145     4.4768    -0.3598 H       
  34 H34           -6.9995     3.0341    -0.2081 H       
  35 H35            3.6547     3.6938    -0.1374 H       
  36 H36            4.4021     2.2186     0.5254 H       
  37 H37            3.5205     2.2230    -2.3500 H       
  38 H38            5.0075     3.0937    -1.9213 H       
  39 H39            3.3782    -0.2153    -2.0647 H       
  40 H40            4.7613    -1.1280    -1.4263 H       
  41 H41            4.2835     0.3750     0.7382 H       
  42 H42            3.3965    -1.1407     0.4408 H       
  43 H43            5.6838     1.1310     0.4635 H       
  44 H44            6.7678     0.1380    -0.5401 H       
  45 H45            6.8021     1.9121    -0.6800 H       
  46 H46            6.1467     2.7835    -3.2425 H       
  47 H47            7.4494     1.8669    -2.4481 H       
  48 H48            7.1073     1.6114    -4.1761 H       
@<TRIPOS>BOND
   1    1    2 ar
   2    1    7 1
   3    1    6 ar
   4    2    3 ar
   5    2   10 1
   6    3    4 ar
   7    3   28 1
   8    4    5 ar
   9    4   29 1
  10    5    6 ar
  11    5   11 1
  12    6   30 1
  13    7    8 2
  14    8    9 1
  15    8   20 1
  16    9   10 am
  17    9   24 1
  18   10   12 2
  19   11   13 3
  20   13   14 1
  21   14   15 ar
  22   14   19 ar
  23   15   16 ar
  24   16   17 ar
  25   16   31 1
  26   17   18 ar
  27   17   32 1
  28   18   19 ar
  29   18   33 1
  30   19   34 1
  31   20   21 1
  32   20   35 1
  33   20   36 1
  34   21   22 1
  35   21   37 1
  36   21   38 1
  37   22   23 1
  38   22   25 1
  39   22   26 1
  40   23   24 1
  41   23   39 1
  42   23   40 1
  43   24   41 1
  44   24   42 1
  45   25   27 1
  46   26   43 1
  47   26   44 1
  48   26   45 1
  49   27   46 1
  50   27   47 1
  51   27   48 1

#	End of record

