#	Name: ASD07330020
#	Creating user name:	WinNT
#	Creation time:	15. 06. 2019 21:11

#	Modifying user name:	WinNT
#	Modification time:	15. 06. 2019 21:11

#	Program:	/corina/corina34_cracker 3.40 0067  02.08.2006

@<TRIPOS>MOLECULE
ASD07330020
  72   76    0    0    0
SMALL
NO_CHARGES


@<TRIPOS>ATOM
   1 C1             1.5112     3.2335    -0.0253 C.ar    
   2 C2             2.5200     3.0957     0.9165 C.ar    
   3 N3             3.4285     2.1476     0.8244 N.ar    
   4 C4             3.4211     1.2750    -0.1784 C.ar    
   5 C5             2.4206     1.3572    -1.1734 C.ar    
   6 C6             1.4497     2.3555    -1.0931 C.ar    
   7 N7             4.3566     0.2984    -0.2744 N.2     
   8 C8             4.3536    -0.5562    -1.2527 C.2     
   9 N9             3.4309    -0.5501    -2.2500 N.am    
  10 C10            2.4441     0.3767    -2.2666 C.2     
  11 O11            1.6092     0.3962    -3.1522 O.2     
  12 C12            3.5014    -1.5101    -3.2692 C.ar    
  13 C13            2.5139    -2.4801    -3.3792 C.ar    
  14 C14            2.5837    -3.4249    -4.3835 C.ar    
  15 C15            3.6401    -3.4053    -5.2827 C.ar    
  16 C16            4.6271    -2.4363    -5.1733 C.ar    
  17 C17            4.5556    -1.4877    -4.1726 C.ar    
  18 C18            5.4308    -1.6097    -1.2833 C.3     
  19 C19            6.5769    -1.1943    -0.3588 C.3     
  20 N20            4.8767    -2.8879    -0.8301 N.am    
  21 C21            4.4417    -3.0461     0.5599 C.3     
  22 C22            3.3005    -2.1023     0.8396 C.ar    
  23 C23            2.0554    -2.3390     0.2854 C.ar    
  24 Cl24           1.8068    -3.7232    -0.7324 Cl      
  25 C25            4.7672    -3.9184    -1.6918 C.2     
  26 C26            4.3057    -5.2661    -1.2001 C.3     
  27 O27            5.0400    -3.7610    -2.8630 O.2     
  28 C28            4.4113    -6.2717    -2.3176 C.ar    
  29 C29            5.5787    -6.9920    -2.4907 C.ar    
  30 C30            3.3390    -6.4773    -3.1652 C.ar    
  31 C31            3.4345    -7.3996    -4.1902 C.ar    
  32 C32            4.6047    -8.1176    -4.3677 C.ar    
  33 C33            5.6765    -7.9146    -3.5147 C.ar    
  34 F34            4.6992    -9.0194    -5.3693 F       
  35 C35            1.0080    -1.4722     0.5431 C.ar    
  36 C36            1.2064    -0.3708     1.3537 C.ar    
  37 C37            2.4513    -0.1345     1.9069 C.ar    
  38 C38            3.4964    -1.0031     1.6545 C.ar    
  39 O39            3.7085    -4.3361    -6.2711 O.3     
  40 C40            4.7293    -5.3776    -8.1982 C.3     
  41 C41            4.8235    -4.2565    -7.1613 C.3     
  42 C42            6.9513    -8.6951    -3.7069 C.3     
  43 F43            7.8802    -8.3187    -2.7309 F       
  44 F44            6.6823   -10.0631    -3.5918 F       
  45 F45            7.4747    -8.4279    -4.9765 F       
  46 H46            0.7759     4.0180     0.0765 H       
  47 H47            2.5615     3.7847     1.7472 H       
  48 H48            0.6742     2.4400    -1.8401 H       
  49 H49            1.6917    -2.4957    -2.6791 H       
  50 H50            1.8159    -4.1796    -4.4690 H       
  51 H51            5.4493    -2.4217    -5.8733 H       
  52 H52            5.3237    -0.7333    -4.0877 H       
  53 H53            5.8056    -1.7167    -2.3012 H       
  54 H54            7.3149    -1.9951    -0.3125 H       
  55 H55            7.0462    -0.2898    -0.7458 H       
  56 H56            6.1863    -1.0019     0.6404 H       
  57 H57            4.1127    -4.0724     0.7231 H       
  58 H58            5.2723    -2.8201     1.2285 H       
  59 H59            4.9322    -5.5826    -0.3662 H       
  60 H60            3.2692    -5.1971    -0.8702 H       
  61 H61            6.4146    -6.8332    -1.8255 H       
  62 H62            2.4260    -5.9172    -3.0263 H       
  63 H63            2.5964    -7.5603    -4.8521 H       
  64 H64            0.0357    -1.6563     0.1104 H       
  65 H65            0.3889     0.3058     1.5549 H       
  66 H66            2.6060     0.7268     2.5398 H       
  67 H67            4.4686    -0.8182     2.0872 H       
  68 H68            4.7371    -6.3426    -7.6916 H       
  69 H69            3.8040    -5.2719    -8.7645 H       
  70 H70            5.5798    -5.3168    -8.8772 H       
  71 H71            4.8157    -3.2914    -7.6679 H       
  72 H72            5.7488    -4.3621    -6.5950 H       
@<TRIPOS>BOND
   1    1    2 ar
   2    1    6 ar
   3    1   46 1
   4    2    3 ar
   5    2   47 1
   6    3    4 ar
   7    4    5 ar
   8    4    7 1
   9    5    6 ar
  10    5   10 1
  11    6   48 1
  12    7    8 2
  13    8    9 1
  14    8   18 1
  15    9   10 am
  16    9   12 1
  17   10   11 2
  18   12   13 ar
  19   12   17 ar
  20   13   14 ar
  21   13   49 1
  22   14   15 ar
  23   14   50 1
  24   15   16 ar
  25   15   39 1
  26   16   17 ar
  27   16   51 1
  28   17   52 1
  29   18   19 1
  30   18   20 1
  31   18   53 1
  32   19   54 1
  33   19   55 1
  34   19   56 1
  35   20   21 1
  36   20   25 am
  37   21   22 1
  38   21   57 1
  39   21   58 1
  40   22   23 ar
  41   22   38 ar
  42   23   24 1
  43   23   35 ar
  44   25   26 1
  45   25   27 2
  46   26   28 1
  47   26   59 1
  48   26   60 1
  49   28   29 ar
  50   28   30 ar
  51   29   33 ar
  52   29   61 1
  53   30   31 ar
  54   30   62 1
  55   31   32 ar
  56   31   63 1
  57   32   33 ar
  58   32   34 1
  59   33   42 1
  60   35   36 ar
  61   35   64 1
  62   36   37 ar
  63   36   65 1
  64   37   38 ar
  65   37   66 1
  66   38   67 1
  67   39   41 1
  68   40   41 1
  69   40   68 1
  70   40   69 1
  71   40   70 1
  72   41   71 1
  73   41   72 1
  74   42   43 1
  75   42   44 1
  76   42   45 1

#	End of record

