#	Name: ASD03731001
#	Creating user name:	WinNT
#	Creation time:	15. 06. 2019 20:45

#	Modifying user name:	WinNT
#	Modification time:	15. 06. 2019 20:45

#	Program:	/corina/corina34_cracker 3.40 0067  02.08.2006

@<TRIPOS>MOLECULE
ASD03731001
  55   61    0    0    0
SMALL
NO_CHARGES


@<TRIPOS>ATOM
   1 O1            -2.4871     3.4021     0.3805 O.3     
   2 C2            -3.0969     2.1032     0.4995 C.3     
   3 O3            -2.1068     1.2091    -0.0416 O.3     
   4 C4            -0.9063     1.8286     0.1584 C.ar    
   5 C5            -1.1407     3.1772     0.4169 C.ar    
   6 C6             0.3886     1.3424     0.1415 C.ar    
   7 C7             1.4641     2.1929     0.3796 C.ar    
   8 C8             1.2179     3.5398     0.6284 C.ar    
   9 C9            -0.0725     4.0262     0.6522 C.ar    
  10 O10            2.7992     1.9181     0.4250 O.3     
  11 C11            2.5608     4.1936     0.8153 C.3     
  12 C12            3.5417     3.1437     0.2760 C.3     
  13 N13            2.9622     6.4370     0.9896 N.am    
  14 C14            2.6682     5.4940     0.0723 C.2     
  15 C15            2.8361     4.5317     2.2506 C.ar    
  16 C16            2.8885     3.7896     3.4094 C.ar    
  17 C17            3.1758     4.4059     4.6143 C.ar    
  18 C18            3.4100     5.7684     4.6518 C.ar    
  19 C19            3.3578     6.5162     3.4939 C.ar    
  20 C20            3.0695     5.9042     2.2765 C.ar    
  21 O21            2.5199     5.6628    -1.1196 O.2     
  22 C22            3.1483     7.8554     0.6736 C.3     
  23 C23            4.5618     8.2619     1.0017 C.ar    
  24 C24            4.8164     9.5148     1.5272 C.ar    
  25 C25            6.1130     9.8877     1.8281 C.ar    
  26 C26            7.1551     9.0075     1.6039 C.ar    
  27 C27            6.9004     7.7542     1.0792 C.ar    
  28 C28            5.6033     7.3797     0.7824 C.ar    
  29 C29            2.8882     8.0815    -0.7935 C.ar    
  30 C30            1.7446     8.7441    -1.1986 C.ar    
  31 C31            1.5061     8.9514    -2.5444 C.ar    
  32 C32            2.4113     8.4966    -3.4849 C.ar    
  33 C33            3.5553     7.8349    -3.0797 C.ar    
  34 C34            3.7960     7.6313    -1.7338 C.ar    
  35 H35           -3.2951     1.8675     1.5451 H       
  36 H36           -4.0156     2.0564    -0.0854 H       
  37 H37            0.5662     0.2959    -0.0576 H       
  38 H38           -0.2502     5.0722     0.8544 H       
  39 H39            4.4519     3.1202     0.8753 H       
  40 H40            3.7721     3.3317    -0.7727 H       
  41 H41            2.7049     2.7258     3.3777 H       
  42 H42            3.2168     3.8244     5.5235 H       
  43 H43            3.6346     6.2493     5.5923 H       
  44 H44            3.5410     7.5799     3.5316 H       
  45 H45            2.4524     8.4531     1.2623 H       
  46 H46            4.0023    10.2025     1.7024 H       
  47 H47            6.3120    10.8669     2.2381 H       
  48 H48            8.1682     9.2991     1.8384 H       
  49 H49            7.7145     7.0666     0.9037 H       
  50 H50            5.4039     6.3992     0.3759 H       
  51 H51            1.0374     9.0994    -0.4638 H       
  52 H52            0.6123     9.4685    -2.8609 H       
  53 H53            2.2246     8.6580    -4.5363 H       
  54 H54            4.2624     7.4793    -3.8145 H       
  55 H55            4.6916     7.1175    -1.4170 H       
@<TRIPOS>BOND
   1    1    2 1
   2    1    5 1
   3    2    3 1
   4    2   35 1
   5    2   36 1
   6    3    4 1
   7    4    5 ar
   8    4    6 ar
   9    5    9 ar
  10    6    7 ar
  11    6   37 1
  12    7    8 ar
  13    7   10 1
  14    8    9 ar
  15    8   11 1
  16    9   38 1
  17   10   12 1
  18   11   12 1
  19   11   14 1
  20   11   15 1
  21   12   39 1
  22   12   40 1
  23   13   14 am
  24   13   20 1
  25   13   22 1
  26   14   21 2
  27   15   16 ar
  28   15   20 ar
  29   16   17 ar
  30   16   41 1
  31   17   18 ar
  32   17   42 1
  33   18   19 ar
  34   18   43 1
  35   19   20 ar
  36   19   44 1
  37   22   23 1
  38   22   29 1
  39   22   45 1
  40   23   24 ar
  41   23   28 ar
  42   24   25 ar
  43   24   46 1
  44   25   26 ar
  45   25   47 1
  46   26   27 ar
  47   26   48 1
  48   27   28 ar
  49   27   49 1
  50   28   50 1
  51   29   30 ar
  52   29   34 ar
  53   30   31 ar
  54   30   51 1
  55   31   32 ar
  56   31   52 1
  57   32   33 ar
  58   32   53 1
  59   33   34 ar
  60   33   54 1
  61   34   55 1

#	End of record

