#	Name: ASD04910130
#	Creating user name:	WinNT
#	Creation time:	15. 06. 2019 20:55

#	Modifying user name:	WinNT
#	Modification time:	15. 06. 2019 20:55

#	Program:	/corina/corina34_cracker 3.40 0067  02.08.2006

@<TRIPOS>MOLECULE
ASD04910130
  29   30    0    0    0
SMALL
NO_CHARGES


@<TRIPOS>ATOM
   1 N1            -0.0176     1.3956     0.0235 N.pl3   
   2 N2             0.1707     0.2318     0.7803 N.2     
   3 C3             1.3569    -0.2480     0.5047 C.2     
   4 C4             1.9620     0.5932    -0.4351 C.2     
   5 C5             1.0971     1.5959    -0.7147 C.2     
   6 C6             3.3348     0.4146    -1.0306 C.3     
   7 F7             3.9279    -0.7354    -0.4988 F       
   8 F8             3.2273     0.2841    -2.4194 F       
   9 F9             4.1236     1.5293    -0.7266 F       
  10 C10           -1.1626     2.2063     0.0266 C.ar    
  11 C11           -2.4215     1.6305    -0.0815 C.ar    
  12 C12           -3.5478     2.4286    -0.0784 C.ar    
  13 C13           -3.4221     3.8061     0.0326 C.ar    
  14 C14           -2.1646     4.3818     0.1402 C.ar    
  15 C15           -1.0376     3.5838     0.1434 C.ar    
  16 C16           -2.5581     0.1346    -0.2026 C.3     
  17 O17           -4.5316     4.5916     0.0356 O.3     
  18 C18           -4.3282     6.0011     0.1531 C.3     
  19 H19            1.7935    -1.1396     0.9300 H       
  20 H20            1.2668     2.4098    -1.4041 H       
  21 H21           -4.5270     1.9809    -0.1628 H       
  22 H22           -2.0672     5.4540     0.2259 H       
  23 H23           -0.0589     4.0318     0.2320 H       
  24 H24           -2.5481    -0.3128     0.7913 H       
  25 H25           -3.4981    -0.1053    -0.6995 H       
  26 H26           -1.7271    -0.2600    -0.7871 H       
  27 H27           -5.2923     6.5095     0.1424 H       
  28 H28           -3.8138     6.2172     1.0895 H       
  29 H29           -3.7232     6.3519    -0.6831 H       
@<TRIPOS>BOND
   1    1    2 1
   2    1    5 1
   3    1   10 1
   4    2    3 2
   5    3    4 1
   6    3   19 1
   7    4    5 2
   8    4    6 1
   9    5   20 1
  10    6    7 1
  11    6    8 1
  12    6    9 1
  13   10   11 ar
  14   10   15 ar
  15   11   12 ar
  16   11   16 1
  17   12   13 ar
  18   12   21 1
  19   13   14 ar
  20   13   17 1
  21   14   15 ar
  22   14   22 1
  23   15   23 1
  24   16   24 1
  25   16   25 1
  26   16   26 1
  27   17   18 1
  28   18   27 1
  29   18   28 1
  30   18   29 1

#	End of record

