#	Name: ASD04590237
#	Creating user name:	WinNT
#	Creation time:	15. 06. 2019 20:50

#	Modifying user name:	WinNT
#	Modification time:	15. 06. 2019 20:50

#	Program:	/corina/corina34_cracker 3.40 0067  02.08.2006

@<TRIPOS>MOLECULE
ASD04590237
  64   67    0    0    0
SMALL
NO_CHARGES


@<TRIPOS>ATOM
   1 N1            -0.0153     1.2802     0.0091 N.pl3   
   2 N2             0.0021    -0.0041     0.0020 N.2     
   3 C3             1.2455    -0.4440    -0.0122 C.2     
   4 C4             2.0903     0.6961    -0.0142 C.2     
   5 C5             1.2523     1.7667    -0.0004 C.2     
   6 C6             1.6765    -1.8547    -0.0235 C.2     
   7 N7             0.7571    -2.8402    -0.0200 N.am    
   8 N8             3.4930     0.7146    -0.0275 N.am    
   9 O9             2.8611    -2.1284    -0.0359 O.2     
  10 C10            4.1514     1.8906    -0.0274 C.2     
  11 C11            5.6264     1.9101    -0.0414 C.ar    
  12 O12            3.5296     2.9356    -0.0159 O.2     
  13 C13            1.1851    -4.2412    -0.0312 C.3     
  14 C14            0.1543    -4.5381    -2.2877 C.3     
  15 C15            1.4410    -4.6848    -1.4730 C.3     
  16 C16            6.3414     1.9129     1.1612 C.ar    
  17 C17            7.7233     1.9313     1.1389 C.ar    
  18 C18            8.3992     1.9473    -0.0677 C.ar    
  19 C19            7.7004     1.9452    -1.2612 C.ar    
  20 C20            6.3184     1.9201    -1.2574 C.ar    
  21 C21            0.0895    -5.1141     0.5841 C.3     
  22 C22           -1.1972    -4.9674    -0.2307 C.3     
  23 C23           -0.9413    -5.4110    -1.6724 C.3     
  24 F24            5.6831     1.8982     2.3408 F       
  25 F25            5.6376     1.9176    -2.4243 F       
  26 C26           -2.2280    -5.2642    -2.4872 C.3     
  27 N27           -2.0167    -5.7997    -3.8343 N.am    
  28 C28           -3.0201    -5.7765    -4.7338 C.2     
  29 O29           -2.8259    -6.2686    -5.9719 O.3     
  30 C30           -3.9508    -6.2108    -6.8881 C.3     
  31 C31           -3.5491    -6.8025    -8.2146 C.ar    
  32 O32           -4.1000    -5.3114    -4.4274 O.2     
  33 C33           -3.7240    -8.1534    -8.4503 C.ar    
  34 C34           -3.0110    -5.9934    -9.1978 C.ar    
  35 C35           -2.6425    -6.5362   -10.4146 C.ar    
  36 C36           -2.8118    -7.8881   -10.6480 C.ar    
  37 C37           -3.3556    -8.6962    -9.6670 C.ar    
  38 H38           -0.8184     1.8242     0.0160 H       
  39 H39            1.5405     2.8076     0.0024 H       
  40 H40           -0.1879    -2.6218    -0.0102 H       
  41 H41            3.9890    -0.1189    -0.0367 H       
  42 H42            2.1017    -4.3458     0.5492 H       
  43 H43           -0.1641    -3.4957    -2.2794 H       
  44 H44            0.3367    -4.8541    -3.3149 H       
  45 H45            2.2215    -4.0630    -1.9113 H       
  46 H46            1.7594    -5.7272    -1.4813 H       
  47 H47            8.2768     1.9335     2.0662 H       
  48 H48            9.4791     1.9620    -0.0779 H       
  49 H49            8.2361     1.9585    -2.1989 H       
  50 H50            0.4079    -6.1565     0.5758 H       
  51 H51           -0.0929    -4.7981     1.6112 H       
  52 H52           -1.9777    -5.5892     0.2077 H       
  53 H53           -1.5156    -3.9249    -0.2224 H       
  54 H54           -0.6229    -6.4534    -1.6807 H       
  55 H55           -3.0319    -5.8152    -1.9991 H       
  56 H56           -2.4979    -4.2103    -2.5534 H       
  57 H57           -1.1546    -6.1710    -4.0789 H       
  58 H58           -4.7853    -6.7776    -6.4752 H       
  59 H59           -4.2513    -5.1726    -7.0295 H       
  60 H60           -4.1483    -8.7848    -7.6836 H       
  61 H61           -2.8787    -4.9372    -9.0155 H       
  62 H62           -2.2227    -5.9040   -11.1830 H       
  63 H63           -2.5243    -8.3121   -11.5988 H       
  64 H64           -3.4878    -9.7524    -9.8494 H       
@<TRIPOS>BOND
   1    1    2 1
   2    1    5 1
   3    1   38 1
   4    2    3 2
   5    3    4 1
   6    3    6 1
   7    4    5 2
   8    4    8 1
   9    5   39 1
  10    6    7 am
  11    6    9 2
  12    7   13 1
  13    7   40 1
  14    8   10 am
  15    8   41 1
  16   10   12 2
  17   10   11 1
  18   11   16 ar
  19   11   20 ar
  20   13   21 1
  21   13   15 1
  22   13   42 1
  23   14   15 1
  24   14   23 1
  25   14   43 1
  26   14   44 1
  27   15   45 1
  28   15   46 1
  29   16   17 ar
  30   16   24 1
  31   17   18 ar
  32   17   47 1
  33   18   19 ar
  34   18   48 1
  35   19   20 ar
  36   19   49 1
  37   20   25 1
  38   21   22 1
  39   21   50 1
  40   21   51 1
  41   22   23 1
  42   22   52 1
  43   22   53 1
  44   23   26 1
  45   23   54 1
  46   26   27 1
  47   26   55 1
  48   26   56 1
  49   27   28 am
  50   27   57 1
  51   28   29 1
  52   28   32 2
  53   29   30 1
  54   30   31 1
  55   30   58 1
  56   30   59 1
  57   31   33 ar
  58   31   34 ar
  59   33   37 ar
  60   33   60 1
  61   34   35 ar
  62   34   61 1
  63   35   36 ar
  64   35   62 1
  65   36   37 ar
  66   36   63 1
  67   37   64 1

#	End of record

