#	Name: ASD09080005
#	Creating user name:	WinNT
#	Creation time:	15. 06. 2019 21:20

#	Modifying user name:	WinNT
#	Modification time:	15. 06. 2019 21:20

#	Program:	/corina/corina34_cracker 3.40 0067  02.08.2006

@<TRIPOS>MOLECULE
ASD09080005
  29   30    0    0    0
SMALL
NO_CHARGES


@<TRIPOS>ATOM
   1 C1            -0.0167     1.3799     0.0096 C.ar    
   2 C2             0.0021    -0.0041     0.0020 C.ar    
   3 C3            -1.1844    -0.7169     0.0091 C.ar    
   4 C4            -2.3938    -0.0494     0.0242 C.ar    
   5 C5            -2.4179     1.3436     0.0324 C.ar    
   6 C6            -1.2209     2.0565     0.0305 C.ar    
   7 Cl7            1.4756     2.2669     0.0001 Cl      
   8 Cl8           -1.1526    -2.4526    -0.0017 Cl      
   9 C9            -3.7143     2.0655     0.0481 C.ar    
  10 C10           -3.7388     3.4586     0.0563 C.ar    
  11 C11           -4.9474     4.1250     0.0704 C.ar    
  12 C12           -6.1329     3.4124     0.0765 C.ar    
  13 C13           -6.1145     2.0293     0.0689 C.ar    
  14 C14           -4.9116     1.3528     0.0489 C.ar    
  15 C15           -7.4494     4.1455     0.0919 C.3     
  16 C16           -7.9073     4.4019    -1.3453 C.3     
  17 Mg17          -9.6458     5.3700    -1.3249 Du      
  18 Br18         -11.6901     6.5084    -1.3009 Br      
  19 H19            0.9456    -0.5295    -0.0098 H       
  20 H20           -3.3190    -0.6065     0.0293 H       
  21 H21           -1.2346     3.1364     0.0372 H       
  22 H22           -2.8137     4.0160     0.0519 H       
  23 H23           -4.9675     5.2048     0.0771 H       
  24 H24           -7.0430     1.4778     0.0744 H       
  25 H25           -4.8983     0.2729     0.0430 H       
  26 H26           -8.1955     3.5418     0.6087 H       
  27 H27           -7.3295     5.0969     0.6102 H       
  28 H28           -7.1613     5.0056    -1.8621 H       
  29 H29           -8.0273     3.4505    -1.8636 H       
@<TRIPOS>BOND
   1    1    2 ar
   2    1    7 1
   3    1    6 ar
   4    2    3 ar
   5    2   19 1
   6    3    4 ar
   7    3    8 1
   8    4    5 ar
   9    4   20 1
  10    5    6 ar
  11    5    9 1
  12    6   21 1
  13    9   10 ar
  14    9   14 ar
  15   10   11 ar
  16   10   22 1
  17   11   12 ar
  18   11   23 1
  19   12   13 ar
  20   12   15 1
  21   13   14 ar
  22   13   24 1
  23   14   25 1
  24   15   16 1
  25   15   26 1
  26   15   27 1
  27   16   17 1
  28   16   28 1
  29   16   29 1
  30   17   18 1

#	End of record

