#	Name: ASD04882246
#	Creating user name:	WinNT
#	Creation time:	15. 06. 2019 20:54

#	Modifying user name:	WinNT
#	Modification time:	15. 06. 2019 20:54

#	Program:	/corina/corina34_cracker 3.40 0067  02.08.2006

@<TRIPOS>MOLECULE
ASD04882246
  70   73    0    0    0
SMALL
NO_CHARGES


@<TRIPOS>ATOM
   1 N1            -0.1364     1.5553    -0.0363 N.am    
   2 C2            -0.0764     0.1557    -0.0458 C.ar    
   3 C3            -1.2528    -0.5953     0.0294 C.ar    
   4 C4            -1.1947    -1.9843     0.0202 C.ar    
   5 C5             0.0214    -2.6252    -0.0631 C.ar    
   6 C6             1.2016    -1.8803    -0.1381 C.ar    
   7 C7             1.1457    -0.4837    -0.1352 C.ar    
   8 N8            -2.4845     0.0485     0.1142 N.3     
   9 C9            -2.6118     0.7769     1.3842 C.3     
  10 C10           -3.5899    -0.9048    -0.0559 C.3     
  11 C11           -4.9202    -0.1482    -0.0358 C.3     
  12 N12           -5.0474     0.5802     1.2342 N.3     
  13 C13           -3.9420     1.5335     1.4043 C.3     
  14 C14            2.5043    -2.5672    -0.2263 C.2     
  15 O15            3.5306    -1.9183    -0.2916 O.2     
  16 C16            0.8452     2.2679     0.5513 C.2     
  17 O17            1.7292     1.6969     1.1629 O.2     
  18 C18            0.8481     3.7309     0.4538 C.2     
  19 N19            2.5568    -3.9139    -0.2347 N.am    
  20 C20           -6.2830     1.2261     1.3192 C.ar    
  21 C21           -7.1622     0.9138     2.3480 C.ar    
  22 C22           -6.6328     2.1864     0.3781 C.ar    
  23 C23           -7.8551     2.8229     0.4651 C.ar    
  24 C24           -8.7304     2.5058     1.4879 C.ar    
  25 C25           -8.3833     1.5544     2.4291 C.ar    
  26 C26            1.7776     4.5696     0.9990 C.2     
  27 O27           -0.0639     4.4840    -0.1953 O.3     
  28 C28            0.2590     5.7780    -0.0716 C.2     
  29 C29            1.3910     5.8757     0.6598 C.2     
  30 C30           -6.7846    -0.1230     3.3744 C.3     
  31 C31           -0.5110     6.9343    -0.6556 C.3     
  32 C32            3.8504    -4.5959    -0.3223 C.3     
  33 C33            3.6303    -6.1100    -0.3133 C.3     
  34 C34            4.9812    -6.8223    -0.4048 C.3     
  35 C35            4.7611    -8.3364    -0.3958 C.3     
  36 O36            6.0229    -9.0017    -0.4813 O.3     
  37 H37           -0.8823     2.0116    -0.4561 H       
  38 H38           -2.1053    -2.5620     0.0788 H       
  39 H39            0.0632    -3.7044    -0.0701 H       
  40 H40            2.0560     0.0945    -0.1934 H       
  41 H41           -2.5830     0.0699     2.2134 H       
  42 H42           -1.7890     1.4853     1.4812 H       
  43 H43           -3.4803    -1.4224    -1.0088 H       
  44 H44           -3.5723    -1.6308     0.7569 H       
  45 H45           -4.9490     0.5588    -0.8650 H       
  46 H46           -5.7430    -0.8565    -0.1328 H       
  47 H47           -4.0516     2.0512     2.3572 H       
  48 H48           -3.9597     2.2596     0.5915 H       
  49 H49            1.7381    -4.4315    -0.1826 H       
  50 H50           -5.9494     2.4349    -0.4204 H       
  51 H51           -8.1276     3.5695    -0.2661 H       
  52 H52           -9.6855     3.0057     1.5540 H       
  53 H53           -9.0691     1.3091     3.2265 H       
  54 H54            2.6425     4.2835     1.5792 H       
  55 H55            1.9019     6.7873     0.9326 H       
  56 H56           -6.2704     0.3591     4.2058 H       
  57 H57           -7.6850    -0.6161     3.7410 H       
  58 H58           -6.1255    -0.8620     2.9189 H       
  59 H59           -1.3778     6.5567    -1.1981 H       
  60 H60           -0.8433     7.5921     0.1475 H       
  61 H61            0.1310     7.4905    -1.3386 H       
  62 H62            4.3516    -4.3072    -1.2462 H       
  63 H63            4.4685    -4.3136     0.5299 H       
  64 H64            3.1291    -6.3988     0.6106 H       
  65 H65            3.0122    -6.3924    -1.1655 H       
  66 H66            5.4824    -6.5335    -1.3287 H       
  67 H67            5.5993    -6.5400     0.4474 H       
  68 H68            4.2599    -8.6252     0.5281 H       
  69 H69            4.1430    -8.6188    -1.2480 H       
  70 H70            5.9596    -9.9666    -0.4806 H       
@<TRIPOS>BOND
   1    1    2 1
   2    1   16 am
   3    1   37 1
   4    2    3 ar
   5    2    7 ar
   6    3    4 ar
   7    3    8 1
   8    4    5 ar
   9    4   38 1
  10    5    6 ar
  11    5   39 1
  12    6    7 ar
  13    6   14 1
  14    7   40 1
  15    8    9 1
  16    8   10 1
  17    9   13 1
  18    9   41 1
  19    9   42 1
  20   10   11 1
  21   10   43 1
  22   10   44 1
  23   11   12 1
  24   11   45 1
  25   11   46 1
  26   12   13 1
  27   12   20 1
  28   13   47 1
  29   13   48 1
  30   14   15 2
  31   14   19 am
  32   16   17 2
  33   16   18 1
  34   18   26 2
  35   18   27 1
  36   19   32 1
  37   19   49 1
  38   20   21 ar
  39   20   22 ar
  40   21   30 1
  41   21   25 ar
  42   22   23 ar
  43   22   50 1
  44   23   24 ar
  45   23   51 1
  46   24   25 ar
  47   24   52 1
  48   25   53 1
  49   26   29 1
  50   26   54 1
  51   27   28 1
  52   28   29 2
  53   28   31 1
  54   29   55 1
  55   30   56 1
  56   30   57 1
  57   30   58 1
  58   31   59 1
  59   31   60 1
  60   31   61 1
  61   32   33 1
  62   32   62 1
  63   32   63 1
  64   33   34 1
  65   33   64 1
  66   33   65 1
  67   34   35 1
  68   34   66 1
  69   34   67 1
  70   35   36 1
  71   35   68 1
  72   35   69 1
  73   36   70 1

#	End of record

