#	Name: ASD01140690
#	Creating user name:	WinNT
#	Creation time:	15. 06. 2019 19:01

#	Modifying user name:	WinNT
#	Modification time:	15. 06. 2019 19:01

#	Program:	/corina/corina34_cracker 3.40 0067  02.08.2006

@<TRIPOS>MOLECULE
ASD01140690
  45   48    0    0    0
SMALL
NO_CHARGES


@<TRIPOS>ATOM
   1 C1             0.1860     1.7900     0.5417 C.3     
   2 C2             0.1286     0.2647     0.4372 C.3     
   3 O3             0.8615    -0.3241     1.5437 O.3     
   4 C4             0.9083    -1.6701     1.5995 C.2     
   5 O5             0.3518    -2.3334     0.7465 O.2     
   6 C6             1.6332    -2.3365     2.6932 C.2     
   7 N7             2.2930    -1.7249     3.7134 N.2     
   8 C8             2.8186    -2.6336     4.4851 C.2     
   9 N9             2.5249    -3.8627     3.9801 N.pl3   
  10 C10            1.7628    -3.6791     2.8748 C.2     
  11 C11            1.1630    -4.7772     2.0343 C.3     
  12 H12            0.5843    -4.3437     1.2188 H       
  13 C13            2.2750    -5.6621     1.4673 C.3     
  14 N14            0.2849    -5.5734     2.8984 N.2     
  15 C15            0.7344    -6.1971     3.9332 C.2     
  16 C16           -0.2595    -6.9776     4.7044 C.ar    
  17 C17           -0.8804    -8.0856     4.1278 C.ar    
  18 C18           -1.8057    -8.8090     4.8513 C.ar    
  19 C19           -2.1201    -8.4384     6.1470 C.ar    
  20 C20           -1.5096    -7.3415     6.7266 C.ar    
  21 C21           -0.5758    -6.6111     6.0153 C.ar    
  22 F22            0.0250    -5.5430     6.5839 F       
  23 C23            2.1116    -6.2281     4.4396 C.ar    
  24 C24            2.6152    -7.4523     4.9039 C.ar    
  25 C25            3.8846    -7.5315     5.4313 C.ar    
  26 Br26           4.5476    -9.1917     6.0476 Br      
  27 C27            4.6776    -6.3985     5.5113 C.ar    
  28 C28            4.2042    -5.1911     5.0414 C.ar    
  29 C29            2.9374    -5.0989     4.4836 C.ar    
  30 H30            1.2248     2.1180     0.5049 H       
  31 H31           -0.3642     2.2321    -0.2890 H       
  32 H32           -0.2619     2.1068     1.4836 H       
  33 H33           -0.9102    -0.0632     0.4739 H       
  34 H34            0.5765    -0.0520    -0.5047 H       
  35 H35            3.3933    -2.4427     5.3794 H       
  36 H36            2.8412    -6.1041     2.2872 H       
  37 H37            1.8356    -6.4539     0.8608 H       
  38 H38            2.9405    -5.0585     0.8501 H       
  39 H39           -0.6373    -8.3765     3.1165 H       
  40 H40           -2.2866    -9.6670     4.4051 H       
  41 H41           -2.8459    -9.0084     6.7080 H       
  42 H42           -1.7594    -7.0575     7.7383 H       
  43 H43            2.0021    -8.3396     4.8477 H       
  44 H44            5.6662    -6.4604     5.9419 H       
  45 H45            4.8262    -4.3104     5.1042 H       
@<TRIPOS>BOND
   1    1    2 1
   2    1   30 1
   3    1   31 1
   4    1   32 1
   5    2    3 1
   6    2   33 1
   7    2   34 1
   8    3    4 1
   9    4    5 2
  10    4    6 1
  11    6   10 2
  12    6    7 1
  13    7    8 2
  14    8    9 1
  15    8   35 1
  16    9   29 1
  17    9   10 1
  18   10   11 1
  19   11   12 1
  20   11   13 1
  21   11   14 1
  22   13   36 1
  23   13   37 1
  24   13   38 1
  25   14   15 2
  26   15   16 1
  27   15   23 1
  28   16   21 ar
  29   16   17 ar
  30   17   18 ar
  31   17   39 1
  32   18   19 ar
  33   18   40 1
  34   19   20 ar
  35   19   41 1
  36   20   21 ar
  37   20   42 1
  38   21   22 1
  39   23   29 ar
  40   23   24 ar
  41   24   25 ar
  42   24   43 1
  43   25   26 1
  44   25   27 ar
  45   27   28 ar
  46   27   44 1
  47   28   29 ar
  48   28   45 1

#	End of record

