#	Name: ASD01811208
#	Creating user name:	WinNT
#	Creation time:	15. 06. 2019 19:26

#	Modifying user name:	WinNT
#	Modification time:	15. 06. 2019 19:26

#	Program:	/corina/corina34_cracker 3.40 0067  02.08.2006

@<TRIPOS>MOLECULE
ASD01811208
  62   67    0    0    0
SMALL
NO_CHARGES


@<TRIPOS>ATOM
   1 C1             1.2183    -0.5222     0.8091 C.3     
   2 C2             0.0021    -0.0041     0.0020 C.3     
   3 C3             0.2351    -0.5463    -1.4233 C.3     
   4 C4             1.7475    -0.7972    -1.5563 C.3     
   5 C5             2.3806    -0.3987    -0.2072 C.3     
   6 N6            -1.2487    -0.5383     0.5572 N.3     
   7 C7            -2.4230     0.0089    -0.1585 C.3     
   8 C8            -3.5532     0.1635     0.8801 C.3     
   9 C9            -2.9274    -0.2770     2.2095 C.3     
  10 C10           -1.4135    -0.1389     1.9806 C.3     
  11 C11           -3.3962     0.5665     3.3579 C.ar    
  12 C12           -3.9808    -0.3174     4.2612 C.ar    
  13 N13           -3.9128    -1.6240     3.7716 N.am    
  14 C14           -3.3080    -1.6847     2.5685 C.2     
  15 C15           -3.3468     1.9155     3.6298 C.ar    
  16 C16           -3.8813     2.4050     4.8082 C.ar    
  17 C17           -4.4645     1.5362     5.7126 C.ar    
  18 C18           -4.5162     0.1841     5.4451 C.ar    
  19 O19           -3.1108    -2.6809     1.9054 O.2     
  20 C20           -4.4380    -2.7921     4.4827 C.3     
  21 C21           -5.8740    -3.0183     4.0854 C.ar    
  22 C22           -6.1674    -3.6554     2.8911 C.ar    
  23 C23           -7.4853    -3.8649     2.5228 C.ar    
  24 C24           -8.5156    -3.4329     3.3574 C.ar    
  25 C25           -8.2118    -2.7931     4.5566 C.ar    
  26 C26           -6.8940    -2.5941     4.9171 C.ar    
  27 F27           -5.1667    -4.0722     2.0848 F       
  28 F28           -7.7726    -4.4859     1.3578 F       
  29 C29           -9.9315    -3.6538     2.9687 C.2     
  30 C30          -10.9054    -4.2040     3.7496 C.2     
  31 N31          -12.0439    -4.2259     3.0271 N.pl3   
  32 N32          -11.7734    -3.6769     1.7678 N.2     
  33 C33          -10.5147    -3.3277     1.7289 C.2     
  34 C34          -13.3400    -4.7359     3.4814 C.3     
  35 H35            1.3993     0.1062     1.6812 H       
  36 H36            1.0718    -1.5612     1.1041 H       
  37 H37           -0.0163     1.0858    -0.0027 H       
  38 H38           -0.3117    -1.4789    -1.5620 H       
  39 H39           -0.0875     0.1894    -2.1600 H       
  40 H40            1.9345    -1.8517    -1.7596 H       
  41 H41            2.1588    -0.1834    -2.3576 H       
  42 H42            2.7463     0.6274    -0.2457 H       
  43 H43            3.1884    -1.0831     0.0521 H       
  44 H44           -2.1771     0.9804    -0.5872 H       
  45 H45           -2.7327    -0.6795    -0.9447 H       
  46 H46           -3.8752     1.2032     0.9385 H       
  47 H47           -4.3941    -0.4812     0.6245 H       
  48 H48           -0.8621    -0.8132     2.6359 H       
  49 H49           -1.0940     0.8923     2.1306 H       
  50 H50           -2.8907     2.5921     2.9223 H       
  51 H51           -3.8430     3.4630     5.0215 H       
  52 H52           -4.8817     1.9184     6.6325 H       
  53 H53           -4.9731    -0.4881     6.1563 H       
  54 H54           -3.8469    -3.6707     4.2246 H       
  55 H55           -4.3814    -2.6190     5.5574 H       
  56 H56           -9.0065    -2.4565     5.2059 H       
  57 H57           -6.6593    -2.0982     5.8474 H       
  58 H58          -10.7862    -4.5583     4.7629 H       
  59 H59          -10.0081    -2.8746     0.8896 H       
  60 H60          -13.9044    -3.9289     3.9487 H       
  61 H61          -13.8975    -5.1226     2.6283 H       
  62 H62          -13.1823    -5.5355     4.2051 H       
@<TRIPOS>BOND
   1    1    2 1
   2    1    5 1
   3    1   35 1
   4    1   36 1
   5    2    3 1
   6    2    6 1
   7    2   37 1
   8    3    4 1
   9    3   38 1
  10    3   39 1
  11    4    5 1
  12    4   40 1
  13    4   41 1
  14    5   42 1
  15    5   43 1
  16    6    7 1
  17    6   10 1
  18    7    8 1
  19    7   44 1
  20    7   45 1
  21    8    9 1
  22    8   46 1
  23    8   47 1
  24    9   10 1
  25    9   11 1
  26    9   14 1
  27   10   48 1
  28   10   49 1
  29   11   12 ar
  30   11   15 ar
  31   12   13 1
  32   12   18 ar
  33   13   14 am
  34   13   20 1
  35   14   19 2
  36   15   16 ar
  37   15   50 1
  38   16   17 ar
  39   16   51 1
  40   17   18 ar
  41   17   52 1
  42   18   53 1
  43   20   21 1
  44   20   54 1
  45   20   55 1
  46   21   22 ar
  47   21   26 ar
  48   22   23 ar
  49   22   27 1
  50   23   24 ar
  51   23   28 1
  52   24   25 ar
  53   24   29 1
  54   25   26 ar
  55   25   56 1
  56   26   57 1
  57   29   30 2
  58   29   33 1
  59   30   31 1
  60   30   58 1
  61   31   32 1
  62   31   34 1
  63   32   33 2
  64   33   59 1
  65   34   60 1
  66   34   61 1
  67   34   62 1

#	End of record

