#	Name: ASD02039274
#	Creating user name:	WinNT
#	Creation time:	15. 06. 2019 20:18

#	Modifying user name:	WinNT
#	Modification time:	15. 06. 2019 20:18

#	Program:	/corina/corina34_cracker 3.40 0067  02.08.2006

@<TRIPOS>MOLECULE
ASD02039274
  47   49    0    0    0
SMALL
NO_CHARGES


@<TRIPOS>ATOM
   1 C1            -0.5534     1.5471     0.4845 C.ar    
   2 N2            -0.8591     0.2882     0.7327 N.ar    
   3 C3            -2.0967    -0.0947     0.9828 C.ar    
   4 C4            -3.1315     0.8176     0.9943 C.ar    
   5 C5            -2.8525     2.1629     0.7365 C.ar    
   6 C6            -1.5269     2.5252     0.4825 C.ar    
   7 C7            -3.9334     3.1792     0.7378 C.ar    
   8 C8            -5.2490     2.8006     0.9982 C.ar    
   9 C9            -6.2504     3.7502     0.9987 C.ar    
  10 C10           -5.9503     5.0757     0.7408 C.ar    
  11 C11           -4.6462     5.4571     0.4817 C.ar    
  12 C12           -3.6360     4.5168     0.4844 C.ar    
  13 C13            0.8790     1.9233     0.2057 C.3     
  14 N14            1.5811     2.1451     1.4722 N.am    
  15 C15            2.2602     1.0309     2.1382 C.3     
  16 C16            1.6022     3.3742     2.0247 C.2     
  17 C17            2.2184     3.5768     3.3475 C.2     
  18 C18            2.2046     4.7305     4.0754 C.2     
  19 C19            3.7443     1.0426     1.7664 C.3     
  20 N20            2.8983     2.6476     4.0668 N.2     
  21 C21            3.2953     3.1872     5.1829 C.2     
  22 N22            2.8816     4.4806     5.2207 N.pl3   
  23 O23            1.1125     4.3162     1.4313 O.2     
  24 C24            3.1250     5.4341     6.3060 C.3     
  25 C25            4.4535    -0.1210     2.4619 C.3     
  26 H26           -2.3025    -1.1362     1.1809 H       
  27 H27           -4.1423     0.4972     1.1992 H       
  28 H28           -1.2695     3.5541     0.2787 H       
  29 H29           -5.4845     1.7659     1.1990 H       
  30 H30           -7.2704     3.4579     1.2004 H       
  31 H31           -6.7372     5.8154     0.7415 H       
  32 H32           -4.4175     6.4933     0.2806 H       
  33 H33           -2.6180     4.8157     0.2823 H       
  34 H34            1.3660     1.1174    -0.3434 H       
  35 H35            0.9057     2.8362    -0.3893 H       
  36 H36            2.1554     1.1348     3.2182 H       
  37 H37            1.8130     0.0896     1.8187 H       
  38 H38            1.7424     5.6646     3.7919 H       
  39 H39            3.8491     0.9387     0.6864 H       
  40 H40            4.1915     1.9839     2.0859 H       
  41 H41            3.8599     2.6865     5.9555 H       
  42 H42            4.0600     5.9632     6.1218 H       
  43 H43            2.3048     6.1506     6.3510 H       
  44 H44            3.1914     4.8979     7.2527 H       
  45 H45            5.5108    -0.1126     2.1970 H       
  46 H46            4.3487    -0.0171     3.5419 H       
  47 H47            4.0063    -1.0623     2.1424 H       
@<TRIPOS>BOND
   1    1    2 ar
   2    1   13 1
   3    1    6 ar
   4    2    3 ar
   5    3    4 ar
   6    3   26 1
   7    4    5 ar
   8    4   27 1
   9    5    6 ar
  10    5    7 1
  11    6   28 1
  12    7    8 ar
  13    7   12 ar
  14    8    9 ar
  15    8   29 1
  16    9   10 ar
  17    9   30 1
  18   10   11 ar
  19   10   31 1
  20   11   12 ar
  21   11   32 1
  22   12   33 1
  23   13   14 1
  24   13   34 1
  25   13   35 1
  26   14   15 1
  27   14   16 am
  28   15   19 1
  29   15   36 1
  30   15   37 1
  31   16   17 1
  32   16   23 2
  33   17   18 2
  34   17   20 1
  35   18   22 1
  36   18   38 1
  37   19   25 1
  38   19   39 1
  39   19   40 1
  40   20   21 2
  41   21   22 1
  42   21   41 1
  43   22   24 1
  44   24   42 1
  45   24   43 1
  46   24   44 1
  47   25   45 1
  48   25   46 1
  49   25   47 1

#	End of record

