#	Name: ASD05850005
#	Creating user name:	WinNT
#	Creation time:	15. 06. 2019 21:04

#	Modifying user name:	WinNT
#	Modification time:	15. 06. 2019 21:04

#	Program:	/corina/corina34_cracker 3.40 0067  02.08.2006

@<TRIPOS>MOLECULE
ASD05850005
  26   28    0    0    0
SMALL
NO_CHARGES


@<TRIPOS>ATOM
   1 C1            -0.0167     1.3794     0.0096 C.ar    
   2 C2             0.0021    -0.0041     0.0020 C.ar    
   3 C3             1.2018    -0.6821    -0.0048 C.ar    
   4 C4             2.4118     0.0191    -0.0038 C.ar    
   5 C5             2.3861     1.4145    -0.0125 C.ar    
   6 C6             1.1693     2.0864     0.0021 C.ar    
   7 C7             3.6698    -0.7635    -0.0078 C.ar    
   8 C8             3.6318    -2.1375    -0.2745 C.ar    
   9 C9             4.8069    -2.8702    -0.2852 C.ar    
  10 C10            6.0167    -2.2547    -0.0248 C.ar    
  11 C11            6.0591    -0.8990     0.2589 C.ar    
  12 C12            4.8957    -0.1655     0.2769 C.ar    
  13 O13            2.4447    -2.7505    -0.5217 O.3     
  14 N14            3.5618     2.1752    -0.0598 N.am    
  15 S15            4.9199     1.5554     0.6775 S.o2    
  16 O16            4.7074     1.6542     2.0791 O.2     
  17 O17            6.0424     2.1168     0.0112 O.2     
  18 H18           -0.9593     1.9065     0.0169 H       
  19 H19           -0.9270    -0.5547     0.0018 H       
  20 H20            1.2077    -1.7620    -0.0106 H       
  21 H21            1.1514     3.1663     0.0072 H       
  22 H22            4.7778    -3.9287    -0.4980 H       
  23 H23            6.9300    -2.8310    -0.0421 H       
  24 H24            7.0043    -0.4190     0.4655 H       
  25 H25            2.1956    -2.7632    -1.4559 H       
  26 H26            3.5839     3.0351    -0.5080 H       
@<TRIPOS>BOND
   1    1    2 ar
   2    1    6 ar
   3    1   18 1
   4    2    3 ar
   5    2   19 1
   6    3    4 ar
   7    3   20 1
   8    4    5 ar
   9    4    7 1
  10    5    6 ar
  11    5   14 1
  12    6   21 1
  13    7    8 ar
  14    7   12 ar
  15    8    9 ar
  16    8   13 1
  17    9   10 ar
  18    9   22 1
  19   10   11 ar
  20   10   23 1
  21   11   12 ar
  22   11   24 1
  23   12   15 1
  24   13   25 1
  25   14   15 am
  26   14   26 1
  27   15   16 2
  28   15   17 2

#	End of record

