#	Name: ASD01940546
#	Creating user name:	WinNT
#	Creation time:	15. 06. 2019 20:12

#	Modifying user name:	WinNT
#	Modification time:	15. 06. 2019 20:12

#	Program:	/corina/corina34_cracker 3.40 0067  02.08.2006

@<TRIPOS>MOLECULE
ASD01940546
  71   76    0    0    0
SMALL
NO_CHARGES


@<TRIPOS>ATOM
   1 C1            -0.1548     1.4021    -0.3586 C.ar    
   2 C2             0.1000     0.6018     0.7452 C.ar    
   3 C3             1.2554    -0.1669     0.7896 C.ar    
   4 C4             2.1524    -0.1319    -0.2713 C.ar    
   5 C5             1.8951     0.6666    -1.3690 C.ar    
   6 C6             0.7462     1.4324    -1.4159 C.ar    
   7 N7            -1.3219     2.1745    -0.4099 N.am    
   8 C8            -1.2464     3.5336    -0.1596 C.2     
   9 C9            -2.4270     4.3126    -0.2118 C.2     
  10 C10           -3.6988     3.6298    -0.5339 C.2     
  11 N11           -3.6543     2.2481    -0.7680 N.am    
  12 C12           -2.4898     1.5818    -0.7062 C.2     
  13 C13           -0.0484     4.1548     0.1399 C.2     
  14 C14           -0.0348     5.5306     0.3823 C.2     
  15 N15           -1.1666     6.2550     0.3283 N.am    
  16 C16           -2.3662     5.6722     0.0357 C.2     
  17 N17           -3.5086     6.4336    -0.0137 N.pl3   
  18 C18           -1.1115     7.6956     0.5890 C.3     
  19 O19            1.0212     6.0840     0.6477 O.2     
  20 C20            1.2284     3.3569     0.2047 C.3     
  21 C21           -4.8493     4.3056    -0.5989 C.2     
  22 C22           -4.8877     1.5262    -1.0902 C.3     
  23 C23           -5.5681     1.8495    -2.4219 C.3     
  24 C24           -4.8364     0.5182    -2.2400 C.3     
  25 N25            1.5162    -0.9739     1.8995 N.am    
  26 C26            1.1453    -0.5679     3.1300 C.2     
  27 C27            1.3169    -1.4771     4.2975 C.2     
  28 O28            0.6714     0.5387     3.2869 O.2     
  29 C29           -4.2914     6.5958     1.1347 C.ar    
  30 C30           -3.8637     6.0736     2.3480 C.ar    
  31 C31           -4.6386     6.2353     3.4800 C.ar    
  32 C32           -5.8398     6.9165     3.4070 C.ar    
  33 C33           -6.2704     7.4386     2.2011 C.ar    
  34 C34           -5.4971     7.2856     1.0648 C.ar    
  35 F35           -5.9147     7.8007    -0.1123 F       
  36 O36           -2.4944     0.3854    -0.9217 O.2     
  37 C37           -6.6820     7.0900     4.6446 C.3     
  38 C38            0.9022    -1.0231     5.6734 C.3     
  39 O39            1.7884    -2.5781     4.1414 O.2     
  40 C40           -6.9818     8.5193     5.1005 C.3     
  41 C41           -8.0864     7.6706     4.4678 C.3     
  42 H42           -0.5986     0.5768     1.5684 H       
  43 H43            3.0516    -0.7291    -0.2375 H       
  44 H44            2.5936     0.6922    -2.1923 H       
  45 H45            0.5479     2.0552    -2.2757 H       
  46 H46           -3.7726     6.8587    -0.8447 H       
  47 H47           -0.1012     7.9719     0.8907 H       
  48 H48           -1.3819     8.2393    -0.3162 H       
  49 H49           -1.8105     7.9474     1.3866 H       
  50 H50            1.6412     3.2498    -0.7984 H       
  51 H51            1.9477     3.8733     0.8404 H       
  52 H52            1.0198     2.3705     0.6190 H       
  53 H53           -4.8749     5.3543    -0.3418 H       
  54 H54           -5.7538     3.8033    -0.9086 H       
  55 H55           -5.5294     1.2898    -0.2414 H       
  56 H56           -6.6575     1.8254    -2.4493 H       
  57 H57           -5.0981     2.5993    -3.0582 H       
  58 H58           -3.8850     0.3921    -2.7568 H       
  59 H59           -5.4444    -0.3818    -2.1478 H       
  60 H60            1.9641    -1.8266     1.7846 H       
  61 H61           -2.9259     5.5411     2.4066 H       
  62 H62           -4.3059     5.8288     4.4236 H       
  63 H63           -7.2090     7.9700     2.1475 H       
  64 H64           -6.5433     6.3339     5.4174 H       
  65 H65            0.5023    -0.0107     5.6168 H       
  66 H66            0.1370    -1.6948     6.0623 H       
  67 H67            1.7674    -1.0354     6.3362 H       
  68 H68           -7.0407     8.7036     6.1732 H       
  69 H69           -6.5699     9.3343     4.5053 H       
  70 H70           -8.4013     7.9272     3.4563 H       
  71 H71           -8.8721     7.2965     5.1242 H       
@<TRIPOS>BOND
   1    1    2 ar
   2    1    6 ar
   3    1    7 1
   4    2    3 ar
   5    2   42 1
   6    3    4 ar
   7    3   25 1
   8    4    5 ar
   9    4   43 1
  10    5    6 ar
  11    5   44 1
  12    6   45 1
  13    7    8 1
  14    7   12 am
  15    8   13 2
  16    8    9 1
  17    9   10 1
  18    9   16 2
  19   10   11 1
  20   10   21 2
  21   11   12 am
  22   11   22 1
  23   12   36 2
  24   13   14 1
  25   13   20 1
  26   14   15 am
  27   14   19 2
  28   15   16 1
  29   15   18 1
  30   16   17 1
  31   17   29 1
  32   17   46 1
  33   18   47 1
  34   18   48 1
  35   18   49 1
  36   20   50 1
  37   20   51 1
  38   20   52 1
  39   21   53 1
  40   21   54 1
  41   22   23 1
  42   22   24 1
  43   22   55 1
  44   23   24 1
  45   23   56 1
  46   23   57 1
  47   24   58 1
  48   24   59 1
  49   25   26 am
  50   25   60 1
  51   26   27 1
  52   26   28 2
  53   27   38 1
  54   27   39 2
  55   29   30 ar
  56   29   34 ar
  57   30   31 ar
  58   30   61 1
  59   31   32 ar
  60   31   62 1
  61   32   33 ar
  62   32   37 1
  63   33   34 ar
  64   33   63 1
  65   34   35 1
  66   37   40 1
  67   37   41 1
  68   37   64 1
  69   38   65 1
  70   38   66 1
  71   38   67 1
  72   40   41 1
  73   40   68 1
  74   40   69 1
  75   41   70 1
  76   41   71 1

#	End of record

