#	Name: ASD01231314
#	Creating user name:	WinNT
#	Creation time:	15. 06. 2019 19:15

#	Modifying user name:	WinNT
#	Modification time:	15. 06. 2019 19:15

#	Program:	/corina/corina34_cracker 3.40 0067  02.08.2006

@<TRIPOS>MOLECULE
ASD01231314
  59   62    0    0    0
SMALL
NO_CHARGES


@<TRIPOS>ATOM
   1 C1             0.5432     1.0573    -0.3468 C.ar    
   2 C2             0.3578    -0.3093    -0.2565 C.ar    
   3 C3            -0.9197    -0.8288    -0.1593 C.ar    
   4 C4            -2.0116     0.0186    -0.1520 C.ar    
   5 C5            -1.8262     1.3858    -0.2414 C.ar    
   6 C6            -0.5488     1.9053    -0.3342 C.ar    
   7 C7            -3.0167     2.3097    -0.2340 C.3     
   8 F8            -3.3172     2.6725     1.0833 F       
   9 F9            -2.7212     3.4572    -0.9778 F       
  10 F10           -4.1169     1.6573    -0.8006 F       
  11 C11            1.9357     1.6235    -0.4528 C.3     
  12 N12            2.3152     1.7257    -1.8641 N.pl3   
  13 C13           -1.1218    -2.3190    -0.0618 C.3     
  14 C14           -1.1150    -2.7331     1.3872 C.ar    
  15 C15           -2.2960    -2.7591     2.1047 C.ar    
  16 C16            0.0709    -3.0925     1.9980 C.ar    
  17 C17            0.0815    -3.4734     3.3291 C.ar    
  18 C18           -1.0990    -3.4937     4.0485 C.ar    
  19 C19           -2.2874    -3.1388     3.4330 C.ar    
  20 C20            1.2290    -3.9049     4.2169 C.3     
  21 C21            0.5662    -4.6065     5.4214 C.3     
  22 C22           -0.8251    -3.9400     5.4687 C.3     
  23 N23            1.3127    -4.3416     6.6537 N.am    
  24 S24            1.4593    -5.5243     7.8035 S.o2    
  25 O25            1.9150    -6.6603     7.0816 O.2     
  26 O26            2.2594    -4.9308     8.8168 O.2     
  27 C27           -0.2332    -5.7869     8.4011 C.3     
  28 C28           -0.2318    -6.8775     9.4742 C.3     
  29 C29           -0.7710    -4.4848     8.9980 C.3     
  30 C30            2.1116     2.7871    -2.6739 C.2     
  31 N31            2.5837     2.5068    -3.8578 N.2     
  32 C32            3.1003     1.2691    -3.8463 C.2     
  33 C33            2.9477     0.7654    -2.6067 C.2     
  34 H34            1.2110    -0.9715    -0.2622 H       
  35 H35           -3.0096    -0.3872    -0.0768 H       
  36 H36           -0.4039     2.9733    -0.4041 H       
  37 H37            1.9611     2.6134     0.0028 H       
  38 H38            2.6352     0.9672     0.0649 H       
  39 H39           -2.0781    -2.5862    -0.5115 H       
  40 H40           -0.3167    -2.8302    -0.5895 H       
  41 H41           -3.2246    -2.4826     1.6276 H       
  42 H42            0.9926    -3.0765     1.4353 H       
  43 H43           -3.2099    -3.1546     3.9942 H       
  44 H44            1.8783    -4.6001     3.6846 H       
  45 H45            1.7965    -3.0361     4.5506 H       
  46 H46            0.4766    -5.6783     5.2442 H       
  47 H47           -0.8101    -3.0805     6.1389 H       
  48 H48           -1.5781    -4.6590     5.7911 H       
  49 H49            1.7212    -3.4734     6.7963 H       
  50 H50           -0.8681    -6.0952     7.5705 H       
  51 H51            0.4031    -6.5691    10.3048 H       
  52 H52           -1.2488    -7.0352     9.8332 H       
  53 H53            0.1514    -7.8051     9.0489 H       
  54 H54           -0.8523    -3.7320     8.2140 H       
  55 H55           -1.7542    -4.6636     9.4334 H       
  56 H56           -0.0898    -4.1313     9.7720 H       
  57 H57            1.6362     3.7140    -2.3890 H       
  58 H58            3.5616     0.7662    -4.6834 H       
  59 H59            3.2583    -0.2112    -2.2659 H       
@<TRIPOS>BOND
   1    1    2 ar
   2    1   11 1
   3    1    6 ar
   4    2    3 ar
   5    2   34 1
   6    3    4 ar
   7    3   13 1
   8    4    5 ar
   9    4   35 1
  10    5    6 ar
  11    5    7 1
  12    6   36 1
  13    7    8 1
  14    7    9 1
  15    7   10 1
  16   11   12 1
  17   11   37 1
  18   11   38 1
  19   12   30 1
  20   12   33 1
  21   13   14 1
  22   13   39 1
  23   13   40 1
  24   14   15 ar
  25   14   16 ar
  26   15   19 ar
  27   15   41 1
  28   16   17 ar
  29   16   42 1
  30   17   18 ar
  31   17   20 1
  32   18   19 ar
  33   18   22 1
  34   19   43 1
  35   20   21 1
  36   20   44 1
  37   20   45 1
  38   21   22 1
  39   21   23 1
  40   21   46 1
  41   22   47 1
  42   22   48 1
  43   23   24 am
  44   23   49 1
  45   24   25 2
  46   24   26 2
  47   24   27 1
  48   27   28 1
  49   27   29 1
  50   27   50 1
  51   28   51 1
  52   28   52 1
  53   28   53 1
  54   29   54 1
  55   29   55 1
  56   29   56 1
  57   30   31 2
  58   30   57 1
  59   31   32 1
  60   32   33 2
  61   32   58 1
  62   33   59 1

#	End of record

