#	Name: ASD09116506
#	Creating user name:	WinNT
#	Creation time:	15. 06. 2019 21:21

#	Modifying user name:	WinNT
#	Modification time:	15. 06. 2019 21:21

#	Program:	/corina/corina34_cracker 3.40 0067  02.08.2006

@<TRIPOS>MOLECULE
ASD09116506
  62   67    0    0    0
SMALL
NO_CHARGES


@<TRIPOS>ATOM
   1 N1            -0.0298     1.4185     0.1465 N.2     
   2 N2            -0.0212     0.0197     0.2690 N.pl3   
   3 C3             1.2222     1.8079     0.1171 C.2     
   4 N4             2.0152     0.7344     0.2141 N.2     
   5 C5             1.2797    -0.3528     0.3065 C.2     
   6 N6             1.7520    -1.6464     0.4216 N.pl3   
   7 C7            -1.1340    -0.8204     0.3391 C.ar    
   8 N8             1.6572     3.1285     0.0026 N.pl3   
   9 C9             3.0192     3.4261     0.0967 C.ar    
  10 C10            3.5405     4.5217    -0.5803 C.ar    
  11 C11            3.8536     2.6301     0.8723 C.ar    
  12 C12            5.1997     2.9337     0.9582 C.ar    
  13 C13            5.7119     4.0127     0.2848 C.ar    
  14 C14            4.8872     4.8148    -0.4858 C.ar    
  15 N15           -1.0324    -2.0868    -0.0359 N.ar    
  16 N16           -2.0282    -2.8990    -0.0004 N.ar    
  17 C17           -3.2238    -2.5131     0.4154 C.ar    
  18 C18           -3.4203    -1.1995     0.8510 C.ar    
  19 C19           -2.3533    -0.3271     0.8102 C.ar    
  20 C20           -4.3857    -3.4318     0.4062 C.ar    
  21 C21           -5.5822    -3.0005    -0.1688 C.ar    
  22 C22           -5.6444    -1.6417    -0.8110 C.3     
  23 C23           -5.7430    -0.5352     0.2355 C.3     
  24 C24           -4.7623    -0.7828     1.3786 C.3     
  25 C25           -4.2996    -4.7036     0.9616 C.ar    
  26 C26           -5.4082    -5.5279     0.9577 C.ar    
  27 C27           -6.5978    -5.0889     0.4056 C.ar    
  28 C28           -6.6853    -3.8268    -0.1559 C.ar    
  29 C29            6.1073     2.0633     1.8026 C.3     
  30 C30            6.5236     2.8572     3.0433 C.3     
  31 C31            7.7358     3.7200     2.7528 C.3     
  32 C32            7.4757     4.8633     1.7920 C.3     
  33 C33            7.1878     4.3395     0.3832 C.3     
  34 N34            8.2247     4.2786     4.0204 N.3     
  35 H35            2.7072    -1.8142     0.4395 H       
  36 H36            1.1283    -2.3866     0.4845 H       
  37 H37            1.0141     3.8401    -0.1423 H       
  38 H38            2.8931     5.1439    -1.1805 H       
  39 H39            3.4531     1.7800     1.4047 H       
  40 H40            5.2958     5.6637    -1.0139 H       
  41 H41           -2.4583     0.7014     1.1227 H       
  42 H42           -4.7458    -1.4883    -1.4086 H       
  43 H43           -6.5169    -1.5950    -1.4627 H       
  44 H44           -5.5145     0.4225    -0.2322 H       
  45 H45           -6.7576    -0.5066     0.6330 H       
  46 H46           -5.1542    -1.5698     2.0230 H       
  47 H47           -4.6505     0.1326     1.9597 H       
  48 H48           -3.3706    -5.0454     1.3937 H       
  49 H49           -5.3456    -6.5173     1.3862 H       
  50 H50           -7.4636    -5.7345     0.4130 H       
  51 H51           -7.6176    -3.4898    -0.5846 H       
  52 H52            5.5729     1.1630     2.1061 H       
  53 H53            6.9925     1.7911     1.2278 H       
  54 H54            5.6964     3.4950     3.3546 H       
  55 H55            6.7627     2.1633     3.8491 H       
  56 H56            8.5180     3.0872     2.3335 H       
  57 H57            6.6182     5.4377     2.1425 H       
  58 H58            8.3514     5.5115     1.7611 H       
  59 H59            7.7751     3.4397     0.1999 H       
  60 H60            7.4436     5.1034    -0.3510 H       
  61 H61            9.0344     4.8616     3.8702 H       
  62 H62            7.4953     4.7884     4.4961 H       
@<TRIPOS>BOND
   1    1    2 1
   2    1    3 2
   3    2    7 1
   4    2    5 1
   5    3    4 1
   6    3    8 1
   7    4    5 2
   8    5    6 1
   9    6   35 1
  10    6   36 1
  11    7   15 ar
  12    7   19 ar
  13    8    9 1
  14    8   37 1
  15    9   10 ar
  16    9   11 ar
  17   10   14 ar
  18   10   38 1
  19   11   12 ar
  20   11   39 1
  21   12   13 ar
  22   12   29 1
  23   13   14 ar
  24   13   33 1
  25   14   40 1
  26   15   16 ar
  27   16   17 ar
  28   17   18 ar
  29   17   20 1
  30   18   19 ar
  31   18   24 1
  32   19   41 1
  33   20   21 ar
  34   20   25 ar
  35   21   22 1
  36   21   28 ar
  37   22   23 1
  38   22   42 1
  39   22   43 1
  40   23   24 1
  41   23   44 1
  42   23   45 1
  43   24   46 1
  44   24   47 1
  45   25   26 ar
  46   25   48 1
  47   26   27 ar
  48   26   49 1
  49   27   28 ar
  50   27   50 1
  51   28   51 1
  52   29   30 1
  53   29   52 1
  54   29   53 1
  55   30   31 1
  56   30   54 1
  57   30   55 1
  58   31   32 1
  59   31   34 1
  60   31   56 1
  61   32   33 1
  62   32   57 1
  63   32   58 1
  64   33   59 1
  65   33   60 1
  66   34   61 1
  67   34   62 1

#	End of record

