#	Name: ASD01900072
#	Creating user name:	WinNT
#	Creation time:	15. 06. 2019 19:51

#	Modifying user name:	WinNT
#	Modification time:	15. 06. 2019 19:51

#	Program:	/corina/corina34_cracker 3.40 0067  02.08.2006

@<TRIPOS>MOLECULE
ASD01900072
  41   44    0    0    0
SMALL
NO_CHARGES


@<TRIPOS>ATOM
   1 C1            -0.0167     1.3787     0.0096 C.ar    
   2 C2             0.0021    -0.0041     0.0020 C.ar    
   3 C3            -1.1879    -0.7118     0.0101 C.ar    
   4 C4            -2.3952    -0.0344     0.0257 C.ar    
   5 C5            -2.4121     1.3478     0.0333 C.ar    
   6 C6            -1.2243     2.0542     0.0306 C.ar    
   7 F7            -1.1710    -2.0627     0.0022 F       
   8 C8            -3.6909    -0.8038     0.0340 C.3     
   9 S9            -4.1941    -1.1223     1.7474 S.o2    
  10 C10           -5.7048    -2.0177     1.6028 C.ar    
  11 C11           -5.6779    -3.4033     1.5346 C.ar    
  12 C12           -6.8501    -4.1208     1.4208 C.ar    
  13 C13           -8.0649    -3.4512     1.3747 C.ar    
  14 C14           -8.0924    -2.0463     1.4444 C.ar    
  15 C15           -6.8907    -1.3408     1.5647 C.ar    
  16 N16           -9.3800    -3.8573     1.2678 N.pl3   
  17 C17          -10.1542    -2.7284     1.2744 C.2     
  18 N18           -9.3915    -1.6681     1.3784 N.2     
  19 C19          -11.6301    -2.7084     1.1776 C.ar    
  20 O20           -3.3018    -2.0383     2.3671 O.2     
  21 O21           -4.5649     0.0888     2.3916 O.2     
  22 C22          -12.3081    -1.4902     1.1952 C.ar    
  23 C23          -13.6894    -1.4879     1.1033 C.ar    
  24 C24          -14.3488    -2.7039     0.9968 C.ar    
  25 C25          -13.6142    -3.8762     0.9853 C.ar    
  26 N26          -12.2993    -3.8516     1.0690 N.ar    
  27 Cl27           1.4748     2.2671     0.0002 Cl      
  28 O28          -11.5830    -5.0730     1.0540 O.3     
  29 H29            0.9444    -0.5316    -0.0105 H       
  30 H30           -3.3541     1.8759     0.0455 H       
  31 H31           -1.2386     3.1341     0.0365 H       
  32 H32           -4.4627    -0.2212    -0.4690 H       
  33 H33           -3.5540    -1.7516    -0.4866 H       
  34 H34           -4.7321    -3.9236     1.5705 H       
  35 H35           -6.8229    -5.1992     1.3673 H       
  36 H36           -6.8999    -0.2622     1.6194 H       
  37 H37           -9.6963    -4.7718     1.2000 H       
  38 H38          -11.7634    -0.5615     1.2797 H       
  39 H39          -14.2416    -0.5598     1.1147 H       
  40 H40          -15.4259    -2.7351     0.9238 H       
  41 H41          -14.1251    -4.8241     0.9028 H       
@<TRIPOS>BOND
   1    1    2 ar
   2    1   27 1
   3    1    6 ar
   4    2    3 ar
   5    2   29 1
   6    3    4 ar
   7    3    7 1
   8    4    5 ar
   9    4    8 1
  10    5    6 ar
  11    5   30 1
  12    6   31 1
  13    8    9 1
  14    8   32 1
  15    8   33 1
  16    9   10 1
  17    9   20 2
  18    9   21 2
  19   10   11 ar
  20   10   15 ar
  21   11   12 ar
  22   11   34 1
  23   12   13 ar
  24   12   35 1
  25   13   14 ar
  26   13   16 1
  27   14   15 ar
  28   14   18 1
  29   15   36 1
  30   16   17 1
  31   16   37 1
  32   17   18 2
  33   17   19 1
  34   19   22 ar
  35   19   26 ar
  36   22   23 ar
  37   22   38 1
  38   23   24 ar
  39   23   39 1
  40   24   25 ar
  41   24   40 1
  42   25   26 ar
  43   25   41 1
  44   26   28 1

#	End of record

