#	Name: ASD01150181
#	Creating user name:	WinNT
#	Creation time:	15. 06. 2019 19:03

#	Modifying user name:	WinNT
#	Modification time:	15. 06. 2019 19:03

#	Program:	/corina/corina34_cracker 3.40 0067  02.08.2006

@<TRIPOS>MOLECULE
ASD01150181
  44   46    0    0    0
SMALL
NO_CHARGES


@<TRIPOS>ATOM
   1 N1            -0.0167     1.3827     0.0096 N.pl3   
   2 C2             0.0021    -0.0041     0.0020 C.2     
   3 C3            -1.3270    -0.4122     0.0125 C.2     
   4 N4            -2.0822     0.6881     0.0256 N.2     
   5 C5            -1.3157     1.7570     0.0300 C.2     
   6 C6             1.0189    -0.9766    -0.0125 C.2     
   7 N7             0.6824    -2.2831    -0.0159 N.am    
   8 C8            -0.6060    -2.6662    -0.0061 C.2     
   9 N9            -1.6093    -1.7685     0.0079 N.am    
  10 O10            2.1907    -0.6424    -0.0223 O.2     
  11 C11           -3.0009    -2.2263     0.0187 C.3     
  12 O12           -0.8719    -3.8528    -0.0100 O.2     
  13 C13            1.7372    -3.2997    -0.0310 C.3     
  14 C14            2.1123    -3.6555     1.3845 C.ar    
  15 C15            1.4534    -4.6807     2.0370 C.ar    
  16 C16            1.7970    -5.0075     3.3353 C.ar    
  17 C17            2.8006    -4.3082     3.9819 C.ar    
  18 C18            3.4596    -3.2822     3.3283 C.ar    
  19 C19            3.1190    -2.9601     2.0281 C.ar    
  20 O20           -1.7589     3.0340     0.0428 O.3     
  21 C21           -3.1744     3.2294     0.0517 C.3     
  22 C22            1.1478     2.2715     0.0033 C.3     
  23 C23           -3.4717    -2.3931     1.4649 C.3     
  24 Cl24           3.2323    -4.7176     5.6127 Cl      
  25 C25           -4.9251    -2.8712     1.4761 C.3     
  26 F26           -5.0173    -4.0986     0.8112 F       
  27 F27           -5.3556    -3.0237     2.7985 F       
  28 F28           -5.7312    -1.9285     0.8290 F       
  29 H29           -3.6290    -1.4919    -0.4855 H       
  30 H30           -3.0728    -3.1826    -0.4994 H       
  31 H31            1.3764    -4.1901    -0.5460 H       
  32 H32            2.6115    -2.9084    -0.5512 H       
  33 H33            0.6698    -5.2263     1.5323 H       
  34 H34            1.2819    -5.8082     3.8451 H       
  35 H35            4.2431    -2.7360     3.8325 H       
  36 H36            3.6334    -2.1592     1.5178 H       
  37 H37           -3.6092     2.7774    -0.8398 H       
  38 H38           -3.6000     2.7627     0.9401 H       
  39 H39           -3.3938     4.2970     0.0616 H       
  40 H40            1.4268     2.4974    -1.0259 H       
  41 H41            0.9017     3.1966     0.5245 H       
  42 H42            1.9815     1.7817     0.5066 H       
  43 H43           -2.8437    -3.1275     1.9691 H       
  44 H44           -3.3999    -1.4367     1.9829 H       
@<TRIPOS>BOND
   1    1    2 1
   2    1   22 1
   3    1    5 1
   4    2    3 2
   5    2    6 1
   6    3    4 1
   7    3    9 1
   8    4    5 2
   9    5   20 1
  10    6    7 am
  11    6   10 2
  12    7    8 am
  13    7   13 1
  14    8    9 am
  15    8   12 2
  16    9   11 1
  17   11   23 1
  18   11   29 1
  19   11   30 1
  20   13   14 1
  21   13   31 1
  22   13   32 1
  23   14   15 ar
  24   14   19 ar
  25   15   16 ar
  26   15   33 1
  27   16   17 ar
  28   16   34 1
  29   17   18 ar
  30   17   24 1
  31   18   19 ar
  32   18   35 1
  33   19   36 1
  34   20   21 1
  35   21   37 1
  36   21   38 1
  37   21   39 1
  38   22   40 1
  39   22   41 1
  40   22   42 1
  41   23   25 1
  42   23   43 1
  43   23   44 1
  44   25   26 1
  45   25   27 1
  46   25   28 1

#	End of record

