#	Name: ASD05250072
#	Creating user name:	WinNT
#	Creation time:	15. 06. 2019 20:58

#	Modifying user name:	WinNT
#	Modification time:	15. 06. 2019 20:58

#	Program:	/corina/corina34_cracker 3.40 0067  02.08.2006

@<TRIPOS>MOLECULE
ASD05250072
  33   34    0    0    0
SMALL
NO_CHARGES


@<TRIPOS>ATOM
   1 C1            -0.0167     1.3835     0.0096 C.ar    
   2 C2             0.0021    -0.0041     0.0020 C.ar    
   3 C3            -1.1874    -0.7187     0.0095 C.ar    
   4 C4            -2.3996    -0.0498     0.0242 C.ar    
   5 C5            -2.4239     1.3468     0.0320 C.ar    
   6 C6            -1.2237     2.0616     0.0306 C.ar    
   7 O7             1.1515     2.0778     0.0022 O.3     
   8 O8            -1.1624    -2.0775     0.0020 O.3     
   9 C9            -3.7115     2.0639     0.0472 C.2     
  10 C10           -3.7323     3.4064     0.0546 C.2     
  11 C11           -5.0195     4.1232     0.0698 C.ar    
  12 C12           -6.2197     3.4077     0.0765 C.ar    
  13 C13           -7.4234     4.0809     0.0907 C.ar    
  14 C14           -7.4464     5.4676     0.0983 C.ar    
  15 C15           -6.2534     6.1880     0.0917 C.ar    
  16 C16           -5.0432     5.5210     0.0833 C.ar    
  17 O17           -8.6357     6.1259     0.1119 O.3     
  18 C18           -9.8199     5.3261     0.1176 C.3     
  19 O19           -6.2802     7.5477     0.0988 O.3     
  20 H20            0.9456    -0.5295    -0.0102 H       
  21 H21           -3.3248    -0.6069     0.0294 H       
  22 H22           -1.2374     3.1415     0.0369 H       
  23 H23            1.4812     2.2835    -0.8833 H       
  24 H24           -1.1468    -2.4755     0.8832 H       
  25 H25           -4.6383     1.5094     0.0524 H       
  26 H26           -2.8055     3.9609     0.0494 H       
  27 H27           -6.2047     2.3279     0.0703 H       
  28 H28           -8.3504     3.5268     0.0956 H       
  29 H29           -4.1181     6.0782     0.0782 H       
  30 H30          -10.6961     5.9743     0.1284 H       
  31 H31           -9.8408     4.7017    -0.7756 H       
  32 H32           -9.8259     4.6921     1.0042 H       
  33 H33           -6.2803     7.9365     0.9842 H       
@<TRIPOS>BOND
   1    1    2 ar
   2    1    7 1
   3    1    6 ar
   4    2    3 ar
   5    2   20 1
   6    3    4 ar
   7    3    8 1
   8    4    5 ar
   9    4   21 1
  10    5    6 ar
  11    5    9 1
  12    6   22 1
  13    7   23 1
  14    8   24 1
  15    9   10 2
  16    9   25 1
  17   10   11 1
  18   10   26 1
  19   11   12 ar
  20   11   16 ar
  21   12   13 ar
  22   12   27 1
  23   13   14 ar
  24   13   28 1
  25   14   15 ar
  26   14   17 1
  27   15   16 ar
  28   15   19 1
  29   16   29 1
  30   17   18 1
  31   18   30 1
  32   18   31 1
  33   18   32 1
  34   19   33 1

#	End of record

