#	Name: ASD01810335
#	Creating user name:	WinNT
#	Creation time:	15. 06. 2019 19:24

#	Modifying user name:	WinNT
#	Modification time:	15. 06. 2019 19:24

#	Program:	/corina/corina34_cracker 3.40 0067  02.08.2006

@<TRIPOS>MOLECULE
ASD01810335
  28   28    0    0    0
SMALL
NO_CHARGES


@<TRIPOS>ATOM
   1 O1             0.0021    -0.0041     0.0020 O.2     
   2 C2            -0.0144     1.2105     0.0087 C.2     
   3 C3             1.2548     1.9665     0.0006 C.ar    
   4 C4             2.4750     1.2880    -0.0147 C.ar    
   5 C5             3.6564     2.0002    -0.0221 C.ar    
   6 C6             3.6340     3.3837    -0.0139 C.ar    
   7 C7             2.4283     4.0623     0.0012 C.ar    
   8 C8             1.2394     3.3627     0.0025 C.ar    
   9 O9            -1.1900     1.8681     0.0178 O.3     
  10 O10           -2.2374     1.1676     0.0190 O.3     
  11 C11           -3.4462     1.9295     0.0289 C.3     
  12 C12           -3.4990     2.8184    -1.2153 C.3     
  13 C13           -4.6468     0.9811     0.0294 C.3     
  14 C14           -3.4872     2.8048     1.2831 C.3     
  15 H15            2.4939     0.2082    -0.0203 H       
  16 H16            4.6010     1.4767    -0.0339 H       
  17 H17            4.5619     3.9363    -0.0191 H       
  18 H18            2.4179     5.1422     0.0075 H       
  19 H19            0.2990     3.8936     0.0140 H       
  20 H20           -3.4699     2.1948    -2.1088 H       
  21 H21           -4.4212     3.3996    -1.2078 H       
  22 H22           -2.6437     3.4941    -1.2157 H       
  23 H23           -4.6092     0.3479     0.9158 H       
  24 H24           -5.5689     1.5623     0.0370 H       
  25 H25           -4.6177     0.3575    -0.8641 H       
  26 H26           -2.6319     3.4805     1.2827 H       
  27 H27           -4.4093     3.3860     1.2906 H       
  28 H28           -3.4496     2.1716     2.1695 H       
@<TRIPOS>BOND
   1    1    2 2
   2    2    3 1
   3    2    9 1
   4    3    4 ar
   5    3    8 ar
   6    4    5 ar
   7    4   15 1
   8    5    6 ar
   9    5   16 1
  10    6    7 ar
  11    6   17 1
  12    7    8 ar
  13    7   18 1
  14    8   19 1
  15    9   10 1
  16   10   11 1
  17   11   12 1
  18   11   13 1
  19   11   14 1
  20   12   20 1
  21   12   21 1
  22   12   22 1
  23   13   23 1
  24   13   24 1
  25   13   25 1
  26   14   26 1
  27   14   27 1
  28   14   28 1

#	End of record

