#	Name: ASD02970001
#	Creating user name:	WinNT
#	Creation time:	15. 06. 2019 20:26

#	Modifying user name:	WinNT
#	Modification time:	15. 06. 2019 20:26

#	Program:	/corina/corina34_cracker 3.40 0067  02.08.2006

@<TRIPOS>MOLECULE
ASD02970001
  39   38    0    0    0
SMALL
NO_CHARGES


@<TRIPOS>ATOM
   1 *1             0.7699    -0.4719     2.4205 Du      
   2 C2             0.6706     1.0842     2.3723 C.2     
   3 O3             1.7496     1.8161     2.0532 O.3     
   4 O4            -0.3789     1.6305     2.6172 O.2     
   5 C5             1.5840     3.2584     2.0279 C.3     
   6 C6             2.9111     3.9175     1.6470 C.3     
   7 C7             2.7709     5.4382     1.7414 C.3     
   8 O8             4.0396     6.0495     1.4994 O.3     
   9 P9             4.2630     7.6438     1.5201 P.3     
  10 O10            3.2573     3.5532     0.3093 O.3     
  11 O11            5.8294     7.9686     1.3384 O.3     
  12 O12            3.4321     8.3178     0.3171 O.3     
  13 O13            3.7923     8.1912     2.8121 O.2     
  14 C14            6.3643     9.2913     1.4182 C.3     
  15 C15            7.8780     9.2433     1.2002 C.3     
  16 N16            8.1609     8.8437    -0.1848 N.4     
  17 C17            7.4716     9.7552    -1.1079 C.3     
  18 C18            9.6086     8.9049    -0.4261 C.3     
  19 C19            7.6853     7.4714    -0.4054 C.3     
  20 H20            0.8227     3.5238     1.2943 H       
  21 H21            1.2754     3.6060     3.0138 H       
  22 H22            3.6925     3.5817     2.3288 H       
  23 H23            2.0532     5.7837     0.9973 H       
  24 H24            2.4208     5.7096     2.7373 H       
  25 H25            2.6053     3.8213    -0.3526 H       
  26 H26            3.6883     8.0051    -0.5614 H       
  27 H27            5.9064     9.9153     0.6507 H       
  28 H28            6.1520     9.7104     2.4017 H       
  29 H29            8.3036    10.2290     1.3881 H       
  30 H30            8.3209     8.5198     1.8848 H       
  31 H31            7.8245    10.7734    -0.9442 H       
  32 H32            7.6815     9.4587    -2.1356 H       
  33 H33            6.3974     9.7097    -0.9288 H       
  34 H34           10.1200     8.2286     0.2588 H       
  35 H35            9.8185     8.6084    -1.4538 H       
  36 H36            9.9615     9.9231    -0.2624 H       
  37 H37            6.5954     7.4588    -0.3962 H       
  38 H38            8.0447     7.1130    -1.3699 H       
  39 H39            8.0628     6.8244     0.3864 H       
@<TRIPOS>BOND
   1    1    2 1
   2    2    3 1
   3    2    4 2
   4    3    5 1
   5    5    6 1
   6    5   20 1
   7    5   21 1
   8    6    7 1
   9    6   10 1
  10    6   22 1
  11    7    8 1
  12    7   23 1
  13    7   24 1
  14    8    9 1
  15    9   11 1
  16    9   12 1
  17    9   13 2
  18   10   25 1
  19   11   14 1
  20   12   26 1
  21   14   15 1
  22   14   27 1
  23   14   28 1
  24   15   16 1
  25   15   29 1
  26   15   30 1
  27   16   17 1
  28   16   18 1
  29   16   19 1
  30   17   31 1
  31   17   32 1
  32   17   33 1
  33   18   34 1
  34   18   35 1
  35   18   36 1
  36   19   37 1
  37   19   38 1
  38   19   39 1

#	End of record

