#	Name: ASD05430648
#	Creating user name:	WinNT
#	Creation time:	15. 06. 2019 21:00

#	Modifying user name:	WinNT
#	Modification time:	15. 06. 2019 21:00

#	Program:	/corina/corina34_cracker 3.40 0067  02.08.2006

@<TRIPOS>MOLECULE
ASD05430648
  35   36    0    0    0
SMALL
NO_CHARGES


@<TRIPOS>ATOM
   1 C1            -0.0168     1.3883     0.0097 C.ar    
   2 C2             0.0021    -0.0041     0.0020 C.ar    
   3 C3            -1.1916    -0.7102     0.0101 C.ar    
   4 C4            -2.3954    -0.0318     0.0257 C.ar    
   5 C5            -2.4137     1.3509     0.0329 C.ar    
   6 C6            -1.2281     2.0614     0.0307 C.ar    
   7 C7            -3.7297     2.0850     0.0494 C.3     
   8 C8            -4.5386     1.7098    -1.1939 C.3     
   9 C9            -4.5142     1.6972     1.3044 C.3     
  10 N10            1.2261    -0.6912    -0.0143 N.pl3   
  11 C11            2.1749    -0.6891     0.9749 C.2     
  12 C12            1.6916    -1.4888    -1.0115 C.2     
  13 N13            2.8618    -1.9498    -0.6633 N.2     
  14 C14            3.1834    -1.4759     0.5499 C.2     
  15 C15            4.4528    -1.7717     1.3063 C.3     
  16 Cl16           2.0933     0.1631     2.4852 Cl      
  17 O17            1.1502     2.0857     0.0023 O.3     
  18 C18            1.0540     3.5114     0.0109 C.3     
  19 F19            0.3756     3.9262     1.1619 F       
  20 F20            2.3386     4.0655     0.0016 F       
  21 F21            0.3538     3.9384    -1.1225 F       
  22 H22           -1.1803    -1.7902     0.0038 H       
  23 H23           -3.3242    -0.5829     0.0320 H       
  24 H24           -1.2458     3.1412     0.0363 H       
  25 H25           -3.5464     3.1594     0.0530 H       
  26 H26           -4.7219     0.6353    -1.1975 H       
  27 H27           -5.4905     2.2407    -1.1820 H       
  28 H28           -3.9797     1.9860    -2.0880 H       
  29 H29           -4.6976     0.6228     1.3008 H       
  30 H30           -3.9380     1.9645     2.1902 H       
  31 H31           -5.4661     2.2282     1.3164 H       
  32 H32            1.1788    -1.7049    -1.9371 H       
  33 H33            5.2092    -1.0295     1.0511 H       
  34 H34            4.2544    -1.7349     2.3775 H       
  35 H35            4.8130    -2.7647     1.0374 H       
@<TRIPOS>BOND
   1    1    2 ar
   2    1   17 1
   3    1    6 ar
   4    2    3 ar
   5    2   10 1
   6    3    4 ar
   7    3   22 1
   8    4    5 ar
   9    4   23 1
  10    5    6 ar
  11    5    7 1
  12    6   24 1
  13    7    8 1
  14    7    9 1
  15    7   25 1
  16    8   26 1
  17    8   27 1
  18    8   28 1
  19    9   29 1
  20    9   30 1
  21    9   31 1
  22   10   11 1
  23   10   12 1
  24   11   16 1
  25   11   14 2
  26   12   13 2
  27   12   32 1
  28   13   14 1
  29   14   15 1
  30   15   33 1
  31   15   34 1
  32   15   35 1
  33   17   18 1
  34   18   19 1
  35   18   20 1
  36   18   21 1

#	End of record

