#	Name: ASD03240755
#	Creating user name:	WinNT
#	Creation time:	15. 06. 2019 20:35

#	Modifying user name:	WinNT
#	Modification time:	15. 06. 2019 20:35

#	Program:	/corina/corina34_cracker 3.40 0067  02.08.2006

@<TRIPOS>MOLECULE
ASD03240755
  87   94    0    0    0
SMALL
NO_CHARGES


@<TRIPOS>ATOM
   1 C1            -0.1795     1.6274    -0.1451 C.2     
   2 N2            -0.1981     0.2828    -0.1603 N.2     
   3 C3             0.9011    -0.4263    -0.1659 C.2     
   4 C4             2.1902     0.2621    -0.1553 C.ar    
   5 C5             2.2030     1.6733    -0.1394 C.ar    
   6 N6             0.9910     2.3367    -0.1345 N.pl3   
   7 C7             3.3995    -0.4407    -0.1601 C.ar    
   8 C8             4.5804     0.2947    -0.1488 C.ar    
   9 C9             4.5129     1.7012    -0.1332 C.ar    
  10 N10            3.3482     2.3324    -0.1299 N.ar    
  11 N11            0.6672     3.6987    -0.1199 N.2     
  12 C12           -0.6383     3.8229    -0.1213 C.2     
  13 C13           -1.2105     2.5570    -0.1311 C.2     
  14 C14            5.8935    -0.3938    -0.1527 C.ar    
  15 C15            6.1507    -1.4151     0.7605 C.ar    
  16 C16            7.3745    -2.0527     0.7519 C.ar    
  17 C17            8.3453    -1.6798    -0.1603 C.ar    
  18 C18            8.0959    -0.6667    -1.0686 C.ar    
  19 C19            6.8735    -0.0262    -1.0734 C.ar    
  20 C20           -1.3946     5.1263    -0.1075 C.3     
  21 C21            5.7668     2.4891    -0.1211 C.ar    
  22 C22            5.8357     3.7061    -0.7992 C.ar    
  23 C23            7.0068     4.4355    -0.7843 C.ar    
  24 C24            8.1112     3.9621    -0.0986 C.ar    
  25 C25            8.0492     2.7558     0.5759 C.ar    
  26 C26            6.8820     2.0199     0.5732 C.ar    
  27 C27            9.3874     4.7636    -0.0868 C.3     
  28 N28            9.3768     5.6843     1.0579 N.3     
  29 C29           10.6925     6.3099     1.2422 C.3     
  30 C30           10.6859     7.1466     2.5236 C.3     
  31 C31            9.5993     8.2204     2.4207 C.3     
  32 C32            8.2463     7.5449     2.1807 C.3     
  33 C33            8.3235     6.6967     0.9092 C.3     
  34 C34            9.5477     9.0093     3.7037 C.2     
  35 O35            8.7815     8.6834     4.5856 O.2     
  36 N36           10.3530    10.0770     3.8711 N.am    
  37 C37           10.2367    10.9307     5.0631 C.3     
  38 C38           11.6272    11.0860     5.6881 C.3     
  39 N39           12.5680    11.5682     4.6681 N.3     
  40 C40           12.7172    10.5948     3.5782 C.3     
  41 C41           11.3755    10.4157     2.8696 C.3     
  42 C42           13.8060    11.8779     5.2356 C.ar    
  43 C43           14.8377    12.3523     4.4367 C.ar    
  44 C44           16.0644    12.6590     5.0036 C.ar    
  45 C45           16.2591    12.4914     6.3678 C.ar    
  46 C46           15.2314    12.0191     7.1614 C.ar    
  47 C47           14.0051    11.7172     6.6011 C.ar    
  48 O48           17.0764    13.1231     4.2244 O.3     
  49 H49            0.8567    -1.5053    -0.1778 H       
  50 H50            3.4159    -1.5205    -0.1719 H       
  51 H51           -2.2676     2.3358    -0.1304 H       
  52 H52            5.3938    -1.7066     1.4736 H       
  53 H53            7.5749    -2.8441     1.4589 H       
  54 H54            9.3018    -2.1813    -0.1632 H       
  55 H55            8.8576    -0.3795    -1.7783 H       
  56 H56            6.6782     0.7616    -1.7859 H       
  57 H57           -1.5751     5.4526    -1.1317 H       
  58 H58           -2.3477     4.9880     0.4030 H       
  59 H59           -0.8081     5.8811     0.4163 H       
  60 H60            4.9743     4.0765    -1.3351 H       
  61 H61            7.0615     5.3778    -1.3092 H       
  62 H62            8.9147     2.3915     1.1093 H       
  63 H63            6.8333     1.0805     1.1038 H       
  64 H64           10.2394     4.0890    -0.0026 H       
  65 H65            9.4663     5.3348    -1.0118 H       
  66 H66           11.4555     5.5353     1.3181 H       
  67 H67           10.9115     6.9530     0.3897 H       
  68 H68           10.4806     6.5018     3.3781 H       
  69 H69           11.6577     7.6233     2.6519 H       
  70 H70            9.8252     8.8888     1.5899 H       
  71 H71            8.0026     6.9064     3.0298 H       
  72 H72            7.4750     8.3062     2.0639 H       
  73 H73            8.5536     7.3379     0.0583 H       
  74 H74            7.3660     6.2030     0.7432 H       
  75 H75            9.8528    11.9097     4.7763 H       
  76 H76            9.5620    10.4659     5.7820 H       
  77 H77           11.5797    11.8035     6.5073 H       
  78 H78           11.9651    10.1218     6.0678 H       
  79 H79           13.4602    10.9560     2.8671 H       
  80 H80           13.0399     9.6373     3.9872 H       
  81 H81           11.4533     9.6106     2.1390 H       
  82 H82           11.1031    11.3443     2.3679 H       
  83 H83           14.6845    12.4818     3.3755 H       
  84 H84           17.2154    12.7301     6.8093 H       
  85 H85           15.3858    11.8893     8.2224 H       
  86 H86           13.2021    11.3525     7.2244 H       
  87 H87           17.0973    14.0861     4.1392 H       
@<TRIPOS>BOND
   1    1    2 1
   2    1    6 1
   3    1   13 2
   4    2    3 2
   5    3    4 1
   6    3   49 1
   7    4    5 ar
   8    4    7 ar
   9    5    6 1
  10    5   10 ar
  11    6   11 1
  12    7    8 ar
  13    7   50 1
  14    8    9 ar
  15    8   14 1
  16    9   10 ar
  17    9   21 1
  18   11   12 2
  19   12   13 1
  20   12   20 1
  21   13   51 1
  22   14   15 ar
  23   14   19 ar
  24   15   16 ar
  25   15   52 1
  26   16   17 ar
  27   16   53 1
  28   17   18 ar
  29   17   54 1
  30   18   19 ar
  31   18   55 1
  32   19   56 1
  33   20   57 1
  34   20   58 1
  35   20   59 1
  36   21   22 ar
  37   21   26 ar
  38   22   23 ar
  39   22   60 1
  40   23   24 ar
  41   23   61 1
  42   24   25 ar
  43   24   27 1
  44   25   26 ar
  45   25   62 1
  46   26   63 1
  47   27   28 1
  48   27   64 1
  49   27   65 1
  50   28   29 1
  51   28   33 1
  52   29   30 1
  53   29   66 1
  54   29   67 1
  55   30   31 1
  56   30   68 1
  57   30   69 1
  58   31   32 1
  59   31   34 1
  60   31   70 1
  61   32   33 1
  62   32   71 1
  63   32   72 1
  64   33   73 1
  65   33   74 1
  66   34   35 2
  67   34   36 am
  68   36   37 1
  69   36   41 1
  70   37   38 1
  71   37   75 1
  72   37   76 1
  73   38   39 1
  74   38   77 1
  75   38   78 1
  76   39   40 1
  77   39   42 1
  78   40   41 1
  79   40   79 1
  80   40   80 1
  81   41   81 1
  82   41   82 1
  83   42   43 ar
  84   42   47 ar
  85   43   44 ar
  86   43   83 1
  87   44   45 ar
  88   44   48 1
  89   45   46 ar
  90   45   84 1
  91   46   47 ar
  92   46   85 1
  93   47   86 1
  94   48   87 1

#	End of record

