#	Name: ASD00990119
#	Creating user name:	WinNT
#	Creation time:	15. 06. 2019 18:54

#	Modifying user name:	WinNT
#	Modification time:	15. 06. 2019 18:54

#	Program:	/corina/corina34_cracker 3.40 0067  02.08.2006

@<TRIPOS>MOLECULE
ASD00990119
  48   51    0    0    0
SMALL
NO_CHARGES


@<TRIPOS>ATOM
   1 C1            -0.1404     1.8112     1.2509 C.ar    
   2 C2            -0.2376     0.4345     1.3061 C.ar    
   3 C3             0.8929    -0.3465     1.1243 C.ar    
   4 C4             2.1244     0.2633     0.8863 C.ar    
   5 C5             2.2156     1.6453     0.8327 C.ar    
   6 C6             1.0829     2.4164     1.0144 C.ar    
   7 N7             3.0573    -0.7639     0.7460 N.am    
   8 C8             4.4898    -0.6034     0.4846 C.3     
   9 C9             5.2319    -0.5113     1.7929 C.2     
  10 N10            6.5711    -0.3597     1.7988 N.am    
  11 C11            7.2926    -0.2703     3.0707 C.3     
  12 O12            4.6241    -0.5737     2.8406 O.2     
  13 C13            7.3054    -0.2844     0.5333 C.3     
  14 C14            7.6484    -1.6557     3.5450 C.2     
  15 N15            8.8468    -2.2659     3.3397 N.pl3   
  16 C16            8.7769    -3.5150     3.9235 C.ar    
  17 C17            7.4899    -3.6120     4.4789 C.ar    
  18 N18            6.8561    -2.4404     4.2153 N.2     
  19 C19            9.6631    -4.5768     4.0443 C.ar    
  20 C20            9.2729    -5.7196     4.7092 C.ar    
  21 C21            8.0015    -5.8151     5.2571 C.ar    
  22 C22            7.1163    -4.7804     5.1482 C.ar    
  23 O23            1.1003    -1.6864     1.1230 O.3     
  24 C24            2.4003    -1.9311     0.8956 C.2     
  25 O25            2.9066    -3.0349     0.8334 O.2     
  26 Cl26           1.1939     4.1476     0.9473 Cl      
  27 C27            9.9979    -1.7023     2.6302 C.3     
  28 C28           10.9563    -1.0651     3.6383 C.3     
  29 O29           12.0792    -0.5153     2.9462 O.3     
  30 H30           -1.0230     2.4183     1.3883 H       
  31 H31           -1.1935    -0.0329     1.4911 H       
  32 H32            3.1688     2.1183     0.6482 H       
  33 H33            4.8544    -1.4613    -0.0804 H       
  34 H34            4.6542     0.3074    -0.0913 H       
  35 H35            8.2040     0.3113     2.9313 H       
  36 H36            6.6608     0.2169     3.8133 H       
  37 H37            7.2960     0.7426     0.1684 H       
  38 H38            8.3353    -0.6046     0.6912 H       
  39 H39            6.8311    -0.9353    -0.2012 H       
  40 H40           10.6535    -4.5079     3.6191 H       
  41 H41            9.9612    -6.5465     4.8039 H       
  42 H42            7.7089    -6.7166     5.7750 H       
  43 H43            6.1294    -4.8653     5.5786 H       
  44 H44           10.5144    -2.4947     2.0885 H       
  45 H45            9.6550    -0.9445     1.9257 H       
  46 H46           10.4398    -0.2727     4.1799 H       
  47 H47           11.2992    -1.8229     4.3427 H       
  48 H48           12.7298    -0.0939     3.5243 H       
@<TRIPOS>BOND
   1    1    2 ar
   2    1    6 ar
   3    1   30 1
   4    2    3 ar
   5    2   31 1
   6    3    4 ar
   7    3   23 1
   8    4    5 ar
   9    4    7 1
  10    5    6 ar
  11    5   32 1
  12    6   26 1
  13    7    8 1
  14    7   24 am
  15    8    9 1
  16    8   33 1
  17    8   34 1
  18    9   10 am
  19    9   12 2
  20   10   11 1
  21   10   13 1
  22   11   14 1
  23   11   35 1
  24   11   36 1
  25   13   37 1
  26   13   38 1
  27   13   39 1
  28   14   15 1
  29   14   18 2
  30   15   16 1
  31   15   27 1
  32   16   17 ar
  33   16   19 ar
  34   17   18 1
  35   17   22 ar
  36   19   20 ar
  37   19   40 1
  38   20   21 ar
  39   20   41 1
  40   21   22 ar
  41   21   42 1
  42   22   43 1
  43   23   24 1
  44   24   25 2
  45   27   28 1
  46   27   44 1
  47   27   45 1
  48   28   29 1
  49   28   46 1
  50   28   47 1
  51   29   48 1

#	End of record

