#	Name: ASD02440010
#	Creating user name:	WinNT
#	Creation time:	15. 06. 2019 20:21

#	Modifying user name:	WinNT
#	Modification time:	15. 06. 2019 20:21

#	Program:	/corina/corina34_cracker 3.40 0067  02.08.2006

@<TRIPOS>MOLECULE
ASD02440010
  30   32    0    0    0
SMALL
NO_CHARGES


@<TRIPOS>ATOM
   1 F1            -3.8196     6.4153    -3.9022 F       
   2 C2            -2.9128     6.2114    -2.9217 C.ar    
   3 C3            -1.7437     6.9538    -2.8947 C.ar    
   4 C4            -0.8133     6.7477    -1.8925 C.ar    
   5 C5            -1.0464     5.8006    -0.9153 C.ar    
   6 C6            -2.2183     5.0530    -0.9381 C.ar    
   7 C7            -3.1549     5.2654    -1.9420 C.ar    
   8 N8            -2.4559     4.0954     0.0484 N.pl3   
   9 C9            -3.6815     3.4668     0.1184 C.2     
  10 C10           -3.7532     2.1198    -0.0106 C.2     
  11 Cl11          -2.2994     1.2051    -0.2622 Cl      
  12 C12           -5.0389     1.4262     0.0598 C.2     
  13 O13           -5.0845     0.2162    -0.0573 O.2     
  14 C14           -6.2848     2.1967     0.2740 C.ar    
  15 C15           -6.2203     3.5948     0.4085 C.ar    
  16 C16           -4.9067     4.2703     0.3399 C.2     
  17 O17           -4.8336     5.4770     0.4546 O.2     
  18 C18           -7.3866     4.3243     0.6094 C.ar    
  19 C19           -8.6055     3.6685     0.6757 C.ar    
  20 C20           -8.6688     2.2946     0.5440 C.ar    
  21 C21           -7.5141     1.5541     0.3428 C.ar    
  22 H22           -1.5582     7.6949    -3.6581 H       
  23 H23            0.0972     7.3283    -1.8745 H       
  24 H24           -0.3184     5.6404    -0.1337 H       
  25 H25           -4.0665     4.6867    -1.9625 H       
  26 H26           -1.7591     3.8717     0.6851 H       
  27 H27           -7.3427     5.3984     0.7137 H       
  28 H28           -9.5118     4.2349     0.8318 H       
  29 H29           -9.6242     1.7941     0.5981 H       
  30 H30           -7.5702     0.4804     0.2410 H       
@<TRIPOS>BOND
   1    1    2 1
   2    2    3 ar
   3    2    7 ar
   4    3    4 ar
   5    3   22 1
   6    4    5 ar
   7    4   23 1
   8    5    6 ar
   9    5   24 1
  10    6    7 ar
  11    6    8 1
  12    7   25 1
  13    8    9 1
  14    8   26 1
  15    9   10 2
  16    9   16 1
  17   10   11 1
  18   10   12 1
  19   12   13 2
  20   12   14 1
  21   14   15 ar
  22   14   21 ar
  23   15   16 1
  24   15   18 ar
  25   16   17 2
  26   18   19 ar
  27   18   27 1
  28   19   20 ar
  29   19   28 1
  30   20   21 ar
  31   20   29 1
  32   21   30 1

#	End of record

