#	Name: ASD08070021
#	Creating user name:	WinNT
#	Creation time:	15. 06. 2019 21:14

#	Modifying user name:	WinNT
#	Modification time:	15. 06. 2019 21:14

#	Program:	/corina/corina34_cracker 3.40 0067  02.08.2006

@<TRIPOS>MOLECULE
ASD08070021
  47   48    0    0    0
SMALL
NO_CHARGES


@<TRIPOS>ATOM
   1 C1            -0.0168     1.3882     0.0097 C.ar    
   2 C2             0.0021    -0.0041     0.0020 C.ar    
   3 C3            -1.1728    -0.7233     0.0094 C.ar    
   4 C4            -2.3946    -0.0611     0.0241 C.ar    
   5 C5            -2.4165     1.3459     0.0319 C.ar    
   6 C6            -1.2196     2.0662     0.0305 C.ar    
   7 O7            -3.6735    -0.4880     0.0336 O.3     
   8 C8            -4.5283     0.5558     0.0470 C.2     
   9 C9            -3.8301     1.7207     0.0469 C.2     
  10 C10           -5.9941     0.4484     0.0603 C.2     
  11 N11           -6.5809    -0.7649     0.0601 N.am    
  12 O12           -6.6777     1.4547     0.0715 O.2     
  13 C13           -8.0419    -0.8719     0.0734 C.3     
  14 C14           -8.4608    -2.2102    -0.5386 C.3     
  15 C15           -8.5462    -0.7906     1.5156 C.3     
  16 C16           -8.2366     0.5946     2.0868 C.3     
  17 C17           -8.0661    -2.2409    -2.0165 C.3     
  18 O18            1.1525     2.0821     0.0022 O.3     
  19 C19            2.3601     1.3183    -0.0134 C.3     
  20 C20           -8.7409     0.6760     3.5290 C.3     
  21 C21           -8.3713    -3.6231    -2.5973 C.3     
  22 C22           -8.8623    -1.1801    -2.7792 C.3     
  23 H23            0.9477    -0.5256    -0.0102 H       
  24 H24           -1.1445    -1.8029     0.0033 H       
  25 H25           -1.2349     3.1460     0.0365 H       
  26 H26           -4.2365     2.7213     0.0567 H       
  27 H27           -6.0359    -1.5672     0.0512 H       
  28 H28           -8.4713    -0.0562    -0.5082 H       
  29 H29           -7.9607    -3.0230    -0.0120 H       
  30 H30           -9.5406    -2.3289    -0.4484 H       
  31 H31           -9.6230    -0.9589     1.5341 H       
  32 H32           -8.0492    -1.5512     2.1177 H       
  33 H33           -7.1599     0.7629     2.0683 H       
  34 H34           -8.7336     1.3553     1.4847 H       
  35 H35           -7.0003    -2.0338    -2.1123 H       
  36 H36            3.2165     1.9926    -0.0180 H       
  37 H37            2.4010     0.6850     0.8728 H       
  38 H38            2.3840     0.6946    -0.9070 H       
  39 H39           -9.8177     0.5077     3.5475 H       
  40 H40           -8.2439    -0.0847     4.1311 H       
  41 H41           -8.5204     1.6628     3.9359 H       
  42 H42           -9.4372    -3.8302    -2.5015 H       
  43 H43           -8.0901    -3.6450    -3.6502 H       
  44 H44           -7.8041    -4.3788    -2.0539 H       
  45 H45           -8.6449    -0.1954    -2.3655 H       
  46 H46           -8.5811    -1.2020    -3.8321 H       
  47 H47           -9.9282    -1.3872    -2.6834 H       
@<TRIPOS>BOND
   1    1    2 ar
   2    1   18 1
   3    1    6 ar
   4    2    3 ar
   5    2   23 1
   6    3    4 ar
   7    3   24 1
   8    4    5 ar
   9    4    7 1
  10    5    6 ar
  11    5    9 1
  12    6   25 1
  13    7    8 1
  14    8    9 2
  15    8   10 1
  16    9   26 1
  17   10   11 am
  18   10   12 2
  19   11   13 1
  20   11   27 1
  21   13   14 1
  22   13   15 1
  23   13   28 1
  24   14   17 1
  25   14   29 1
  26   14   30 1
  27   15   16 1
  28   15   31 1
  29   15   32 1
  30   16   20 1
  31   16   33 1
  32   16   34 1
  33   17   21 1
  34   17   22 1
  35   17   35 1
  36   18   19 1
  37   19   36 1
  38   19   37 1
  39   19   38 1
  40   20   39 1
  41   20   40 1
  42   20   41 1
  43   21   42 1
  44   21   43 1
  45   21   44 1
  46   22   45 1
  47   22   46 1
  48   22   47 1

#	End of record

