#	Name: ASD09740418
#	Creating user name:	WinNT
#	Creation time:	15. 06. 2019 21:23

#	Modifying user name:	WinNT
#	Modification time:	15. 06. 2019 21:23

#	Program:	/corina/corina34_cracker 3.40 0067  02.08.2006

@<TRIPOS>MOLECULE
ASD09740418
  71   75    0    0    0
SMALL
NO_CHARGES


@<TRIPOS>ATOM
   1 N1            -0.0944     1.3695     0.7156 N.2     
   2 C2            -0.1041     0.0822     0.9572 C.2     
   3 C3             1.0399     1.9948     0.8634 C.2     
   4 S4             2.2745     0.8454     1.3709 S.3     
   5 C5             1.0789    -0.4492     1.3355 C.2     
   6 C6             1.2560     3.4392     0.6397 C.ar    
   7 C7             0.1961     4.2477     0.2375 C.ar    
   8 C8             2.5238     3.9955     0.8375 C.ar    
   9 C9             2.7308     5.3419     0.6308 C.ar    
  10 C10            1.6829     6.1562     0.2248 C.ar    
  11 C11            0.4059     5.6101     0.0279 C.ar    
  12 O12            1.8923     7.4813     0.0232 O.3     
  13 C13            3.2384     7.9489     0.1299 C.3     
  14 C14            3.4015     9.2265    -0.6960 C.3     
  15 C15            3.5608     8.2448     1.5960 C.3     
  16 C16           -0.6773     6.4479    -0.3910 C.1     
  17 N17           -1.5366     7.1125    -0.7233 N.1     
  18 C18            1.3271    -1.8687     1.6634 C.ar    
  19 C19            2.3999    -2.5459     1.0753 C.ar    
  20 C20            2.6264    -3.8705     1.3859 C.ar    
  21 C21            1.7907    -4.5246     2.2783 C.ar    
  22 C22            0.7283    -3.8601     2.8616 C.ar    
  23 C23            0.4951    -2.5331     2.5644 C.ar    
  24 C24            3.4401    -2.0651     0.0866 C.3     
  25 C25            4.5785    -3.1047     0.1612 C.3     
  26 C26            3.8357    -4.3748     0.6272 C.3     
  27 N27            4.6933    -5.1707     1.5089 N.am    
  28 S28            4.6111    -6.8243     1.4720 S.o2    
  29 C29            5.1925    -7.2694    -0.1877 C.3     
  30 C30            5.1629    -8.7908    -0.3474 C.3     
  31 O31            5.5457    -7.2436     2.4568 O.2     
  32 O32            3.2257    -7.1094     1.6082 O.2     
  33 N33            5.6336    -9.1513    -1.6915 N.3     
  34 C34            5.8450   -10.6012    -1.8041 C.3     
  35 C35            6.8581    -8.4151    -2.0357 C.3     
  36 C36            7.2703    -8.7580    -3.4692 C.3     
  37 N37            7.4817   -10.2079    -3.5819 N.3     
  38 C38            6.2572   -10.9440    -3.2377 C.3     
  39 H39           -0.9989    -0.5148     0.8606 H       
  40 H40           -0.7848     3.8211     0.0881 H       
  41 H41            3.3435     3.3674     1.1538 H       
  42 H42            3.7122     5.7652     0.7857 H       
  43 H43            3.9193     7.1847    -0.2447 H       
  44 H44            2.7206     9.9908    -0.3214 H       
  45 H45            4.4283     9.5832    -0.6146 H       
  46 H46            3.1719     9.0157    -1.7405 H       
  47 H47            2.8799     9.0091     1.9707 H       
  48 H48            3.4446     7.3347     2.1844 H       
  49 H49            4.5875     8.6015     1.6774 H       
  50 H50            1.9711    -5.5618     2.5194 H       
  51 H51            0.0830    -4.3788     3.5551 H       
  52 H52           -0.3349    -2.0135     3.0199 H       
  53 H53            3.0207    -2.0349    -0.9191 H       
  54 H54            3.8080    -1.0800     0.3736 H       
  55 H55            5.0291    -3.2572    -0.8196 H       
  56 H56            5.3299    -2.8050     0.8918 H       
  57 H57            3.5227    -4.9670    -0.2327 H       
  58 H58            5.3093    -4.7291     2.1142 H       
  59 H59            4.5431    -6.8130    -0.9347 H       
  60 H60            6.2122    -6.9095    -0.3242 H       
  61 H61            5.8123    -9.2472     0.3996 H       
  62 H62            4.1431    -9.1507    -0.2110 H       
  63 H63            6.6324   -10.9084    -1.1160 H       
  64 H64            4.9210   -11.1237    -1.5566 H       
  65 H65            6.6726    -7.3439    -1.9569 H       
  66 H66            7.6570    -8.6976    -1.3501 H       
  67 H67            6.4828    -8.4507    -4.1574 H       
  68 H68            8.1943    -8.2355    -3.7167 H       
  69 H69            7.8050   -10.4555    -4.5050 H       
  70 H70            6.4427   -12.0152    -3.3164 H       
  71 H71            5.4583   -10.6616    -3.9232 H       
@<TRIPOS>BOND
   1    1    2 1
   2    1    3 2
   3    2    5 2
   4    2   39 1
   5    3    4 1
   6    3    6 1
   7    4    5 1
   8    5   18 1
   9    6    7 ar
  10    6    8 ar
  11    7   11 ar
  12    7   40 1
  13    8    9 ar
  14    8   41 1
  15    9   10 ar
  16    9   42 1
  17   10   11 ar
  18   10   12 1
  19   11   16 1
  20   12   13 1
  21   13   14 1
  22   13   15 1
  23   13   43 1
  24   14   44 1
  25   14   45 1
  26   14   46 1
  27   15   47 1
  28   15   48 1
  29   15   49 1
  30   16   17 3
  31   18   19 ar
  32   18   23 ar
  33   19   20 ar
  34   19   24 1
  35   20   21 ar
  36   20   26 1
  37   21   22 ar
  38   21   50 1
  39   22   23 ar
  40   22   51 1
  41   23   52 1
  42   24   25 1
  43   24   53 1
  44   24   54 1
  45   25   26 1
  46   25   55 1
  47   25   56 1
  48   26   27 1
  49   26   57 1
  50   27   28 am
  51   27   58 1
  52   28   29 1
  53   28   31 2
  54   28   32 2
  55   29   30 1
  56   29   59 1
  57   29   60 1
  58   30   33 1
  59   30   61 1
  60   30   62 1
  61   33   34 1
  62   33   35 1
  63   34   38 1
  64   34   63 1
  65   34   64 1
  66   35   36 1
  67   35   65 1
  68   35   66 1
  69   36   37 1
  70   36   67 1
  71   36   68 1
  72   37   38 1
  73   37   69 1
  74   38   70 1
  75   38   71 1

#	End of record

