#	Name: ASD03330834
#	Creating user name:	WinNT
#	Creation time:	15. 06. 2019 20:38

#	Modifying user name:	WinNT
#	Modification time:	15. 06. 2019 20:38

#	Program:	/corina/corina34_cracker 3.40 0067  02.08.2006

@<TRIPOS>MOLECULE
ASD03330834
  59   61    0    0    0
SMALL
NO_CHARGES


@<TRIPOS>ATOM
   1 C1             0.0009     2.2371    -0.9274 C.2     
   2 N2            -0.0610     1.0927    -1.6460 N.pl3   
   3 C3             1.3203     2.5271    -0.7458 C.2     
   4 N4             2.0410     1.5703    -1.3677 N.2     
   5 C5             1.2194     0.7070    -1.9165 C.2     
   6 C6             1.6154    -0.4858    -2.6978 C.ar    
   7 C7             2.7961    -0.4944    -3.4471 C.ar    
   8 C8             1.8628     3.6795    -0.0040 C.2     
   9 O9             1.1073     4.4786     0.5152 O.2     
  10 C10            3.7352     4.9930     0.8361 C.3     
  11 N11            3.1961     3.8476     0.0988 N.am    
  12 C12            3.1275    -1.6297    -4.1614 C.ar    
  13 N13            2.3469    -2.6939    -4.1420 N.ar    
  14 C14            1.2250    -2.7263    -3.4481 C.ar    
  15 C15            0.8213    -1.6385    -2.7025 C.ar    
  16 C16           -1.2918     0.4011    -2.0393 C.3     
  17 C17           -2.2784     1.4199    -2.6181 C.3     
  18 C18           -3.1134     2.0245    -1.4937 C.3     
  19 N19           -2.3299     2.1405    -0.2619 N.3     
  20 C20           -1.1798     3.0384    -0.4433 C.3     
  21 C21           -3.1717     2.5829     0.8578 C.3     
  22 C22            3.8112     4.6509     2.3254 C.3     
  23 Cl23           4.5895    -1.6567    -5.0972 Cl      
  24 C24            4.6608     3.3929     2.5170 C.3     
  25 C25            4.4478     5.8167     3.0846 C.3     
  26 C26            2.4011     4.4009     2.8638 C.3     
  27 C27            5.1152     5.3157     0.3237 C.2     
  28 O28            5.7392     4.4853    -0.3025 O.2     
  29 N29            5.6561     6.5271     0.5613 N.am    
  30 C30            6.9523     6.8782    -0.0241 C.3     
  31 H31            3.4389     0.3732    -3.4673 H       
  32 H32            3.0841     5.8556     0.6942 H       
  33 H33            3.7986     3.2102    -0.3154 H       
  34 H34            0.6163    -3.6183    -3.4612 H       
  35 H35           -0.0982    -1.6726    -2.1371 H       
  36 H36           -1.0616    -0.3519    -2.7931 H       
  37 H37           -1.7344    -0.0793    -1.1667 H       
  38 H38           -1.7266     2.2110    -3.1256 H       
  39 H39           -2.9362     0.9229    -3.3311 H       
  40 H40           -3.4556     3.0146    -1.7947 H       
  41 H41           -3.9790     1.3884    -1.3088 H       
  42 H42           -0.9338     3.5119     0.5071 H       
  43 H43           -1.4274     3.8034    -1.1793 H       
  44 H44           -3.9714     1.8599     1.0189 H       
  45 H45           -2.5650     2.6606     1.7599 H       
  46 H46           -3.6034     3.5564     0.6252 H       
  47 H47            5.6654     3.5710     2.1333 H       
  48 H48            4.7149     3.1492     3.5780 H       
  49 H49            4.2073     2.5624     1.9760 H       
  50 H50            3.8495     6.7159     2.9378 H       
  51 H51            4.4904     5.5782     4.1474 H       
  52 H52            5.4571     5.9866     2.7097 H       
  53 H53            1.9476     3.5703     2.3229 H       
  54 H54            2.4553     4.1571     3.9248 H       
  55 H55            1.7959     5.2971     2.7273 H       
  56 H56            5.1871     7.1665     1.1199 H       
  57 H57            7.2250     7.8896     0.2770 H       
  58 H58            7.7107     6.1779     0.3260 H       
  59 H59            6.8857     6.8281    -1.1109 H       
@<TRIPOS>BOND
   1    1    2 1
   2    1    3 2
   3    1   20 1
   4    2   16 1
   5    2    5 1
   6    3    4 1
   7    3    8 1
   8    4    5 2
   9    5    6 1
  10    6    7 ar
  11    6   15 ar
  12    7   12 ar
  13    7   31 1
  14    8    9 2
  15    8   11 am
  16   10   11 1
  17   10   22 1
  18   10   27 1
  19   10   32 1
  20   11   33 1
  21   12   13 ar
  22   12   23 1
  23   13   14 ar
  24   14   15 ar
  25   14   34 1
  26   15   35 1
  27   16   17 1
  28   16   36 1
  29   16   37 1
  30   17   18 1
  31   17   38 1
  32   17   39 1
  33   18   19 1
  34   18   40 1
  35   18   41 1
  36   19   20 1
  37   19   21 1
  38   20   42 1
  39   20   43 1
  40   21   44 1
  41   21   45 1
  42   21   46 1
  43   22   24 1
  44   22   25 1
  45   22   26 1
  46   24   47 1
  47   24   48 1
  48   24   49 1
  49   25   50 1
  50   25   51 1
  51   25   52 1
  52   26   53 1
  53   26   54 1
  54   26   55 1
  55   27   28 2
  56   27   29 am
  57   29   30 1
  58   29   56 1
  59   30   57 1
  60   30   58 1
  61   30   59 1

#	End of record

