#	Name: ASD02562083
#	Creating user name:	WinNT
#	Creation time:	15. 06. 2019 20:25

#	Modifying user name:	WinNT
#	Modification time:	15. 06. 2019 20:25

#	Program:	/corina/corina34_cracker 3.40 0067  02.08.2006

@<TRIPOS>MOLECULE
ASD02562083
  30   32    0    0    0
SMALL
NO_CHARGES


@<TRIPOS>ATOM
   1 C1            -0.0168     1.3854     0.0097 C.ar    
   2 C2             0.0021    -0.0041     0.0020 C.ar    
   3 C3            -1.1899    -0.7125     0.0314 C.ar    
   4 C4            -2.3921    -0.0321     0.0580 C.ar    
   5 C5            -2.4077     1.3519     0.0554 C.ar    
   6 C6            -1.2187     2.0609     0.0312 C.ar    
   7 C7             1.2903     2.1378     0.0012 C.3     
   8 O8             2.2999     1.3223    -0.6533 O.3     
   9 C9             2.3575     0.0209    -0.3140 C.2     
  10 N10            1.2308    -0.6718    -0.0567 N.am    
  11 O11            3.4357    -0.5343    -0.2391 O.2     
  12 C12            1.1261     3.4026    -0.7337 C.1     
  13 C13            0.9951     4.4114    -1.3198 C.1     
  14 C14            0.8309     5.6762    -2.0547 C.3     
  15 C15            2.0540     6.5874    -2.1747 C.3     
  16 C16            1.5543     5.8130    -3.3959 C.3     
  17 Cl17          -3.9217     2.2008     0.0825 Cl      
  18 C18            1.7220     2.4308     1.4395 C.3     
  19 F19            1.8829     1.2263     2.1327 F       
  20 F20            2.9344     3.1287     1.4295 F       
  21 F21            0.7432     3.2054     2.0715 F       
  22 H22           -1.1784    -1.7924     0.0331 H       
  23 H23           -3.3218    -0.5813     0.0805 H       
  24 H24           -1.2326     3.1408     0.0296 H       
  25 H25            1.2711    -1.6302     0.0873 H       
  26 H26           -0.1444     6.1531    -1.9576 H       
  27 H27            1.8834     7.6638    -2.1570 H       
  28 H28            2.9804     6.2504    -1.7095 H       
  29 H29            2.1518     4.9664    -3.7341 H       
  30 H30            1.0548     6.3799    -4.1816 H       
@<TRIPOS>BOND
   1    1    2 ar
   2    1    7 1
   3    1    6 ar
   4    2    3 ar
   5    2   10 1
   6    3    4 ar
   7    3   22 1
   8    4    5 ar
   9    4   23 1
  10    5    6 ar
  11    5   17 1
  12    6   24 1
  13    7    8 1
  14    7   12 1
  15    7   18 1
  16    8    9 1
  17    9   10 am
  18    9   11 2
  19   10   25 1
  20   12   13 3
  21   13   14 1
  22   14   15 1
  23   14   16 1
  24   14   26 1
  25   15   16 1
  26   15   27 1
  27   15   28 1
  28   16   29 1
  29   16   30 1
  30   18   19 1
  31   18   20 1
  32   18   21 1

#	End of record

