#	Name: ASD01911539
#	Creating user name:	WinNT
#	Creation time:	15. 06. 2019 19:57

#	Modifying user name:	WinNT
#	Modification time:	15. 06. 2019 19:57

#	Program:	/corina/corina34_cracker 3.40 0067  02.08.2006

@<TRIPOS>MOLECULE
ASD01911539
  37   39    0    0    0
SMALL
NO_CHARGES


@<TRIPOS>ATOM
   1 C1            -0.0144     1.2130     0.0087 C.2     
   2 O2             0.2104     0.1701     0.5946 O.2     
   3 N3             0.9694     1.8245    -0.6801 N.am    
   4 C4             0.6850     3.0128    -1.4961 C.3     
   5 C5             1.6368     4.1378    -1.0774 C.3     
   6 C6             3.0810     3.6407    -1.1730 C.3     
   7 C7             3.2800     2.4599    -0.2200 C.3     
   8 C8             2.3479     1.3192    -0.6245 C.3     
   9 S9            -1.7328     3.5111     0.2428 S.3     
  10 C10           -3.4525     3.1404     0.1573 C.2     
  11 N11           -3.6125     1.8499    -0.0009 N.2     
  12 C12           -2.5371     1.1171    -0.0627 C.2     
  13 C13           -1.3561     1.8004     0.0473 C.2     
  14 C14           -4.5112     4.1005     0.2468 C.1     
  15 C15           -5.3792     4.8876     0.3201 C.1     
  16 C16           -6.4378     5.8477     0.4096 C.ar    
  17 C17           -7.7708     5.4335     0.3281 C.ar    
  18 C18           -8.7847     6.3640     0.4151 C.ar    
  19 C19           -8.4857     7.7049     0.5821 C.ar    
  20 C20           -7.1688     8.1228     0.6631 C.ar    
  21 C21           -6.1440     7.2034     0.5845 C.ar    
  22 H22            0.8379     2.7779    -2.5495 H       
  23 H23           -0.3461     3.3279    -1.3358 H       
  24 H24            1.5020     4.9935    -1.7391 H       
  25 H25            1.4210     4.4336    -0.0508 H       
  26 H26            3.2885     3.3218    -2.1945 H       
  27 H27            3.7615     4.4470    -0.8993 H       
  28 H28            4.3149     2.1213    -0.2714 H       
  29 H29            3.0488     2.7715     0.7986 H       
  30 H30            2.4137     0.5172     0.1107 H       
  31 H31            2.6392     0.9434    -1.6053 H       
  32 H32           -2.5747     0.0454    -0.1914 H       
  33 H33           -8.0057     4.3875     0.1971 H       
  34 H34           -9.8148     6.0456     0.3523 H       
  35 H35           -9.2842     8.4291     0.6491 H       
  36 H36           -6.9433     9.1710     0.7927 H       
  37 H37           -5.1169     7.5304     0.6528 H       
@<TRIPOS>BOND
   1    1    2 2
   2    1    3 am
   3    1   13 1
   4    3    4 1
   5    3    8 1
   6    4    5 1
   7    4   22 1
   8    4   23 1
   9    5    6 1
  10    5   24 1
  11    5   25 1
  12    6    7 1
  13    6   26 1
  14    6   27 1
  15    7    8 1
  16    7   28 1
  17    7   29 1
  18    8   30 1
  19    8   31 1
  20    9   10 1
  21    9   13 1
  22   10   11 2
  23   10   14 1
  24   11   12 1
  25   12   13 2
  26   12   32 1
  27   14   15 3
  28   15   16 1
  29   16   17 ar
  30   16   21 ar
  31   17   18 ar
  32   17   33 1
  33   18   19 ar
  34   18   34 1
  35   19   20 ar
  36   19   35 1
  37   20   21 ar
  38   20   36 1
  39   21   37 1

#	End of record

