#	Name: ASD00111099
#	Creating user name:	WinNT
#	Creation time:	15. 06. 2019 18:30

#	Modifying user name:	WinNT
#	Modification time:	15. 06. 2019 18:30

#	Program:	/corina/corina34_cracker 3.40 0067  02.08.2006

@<TRIPOS>MOLECULE
ASD00111099
  42   43    0    0    0
SMALL
NO_CHARGES


@<TRIPOS>ATOM
   1 N1             1.2317     1.6508     0.3553 N.am    
   2 C2             0.7110     0.3276     0.0261 C.3     
   3 C3             0.6301    -0.5274     1.2955 C.3     
   4 C4             2.0044    -1.0853     1.5919 C.ar    
   5 C5             3.0072    -0.2574     2.0342 C.ar    
   6 C6             2.7465     1.2196     2.2290 C.3     
   7 C7             2.5855     1.8751     0.8528 C.3     
   8 C8             4.2634    -0.7675     2.3061 C.ar    
   9 C9             4.5086    -2.1221     2.1301 C.ar    
  10 C10            3.4944    -2.9561     1.6829 C.ar    
  11 C11            2.2422    -2.4372     1.4139 C.ar    
  12 O12            5.7407    -2.6307     2.3951 O.3     
  13 C13            5.9210    -4.0336     2.1915 C.3     
  14 C14            0.1633     0.3375     2.4681 C.3     
  15 C15           -1.3660     0.3728     2.4987 C.3     
  16 C16            0.6861    -0.2546     3.7784 C.3     
  17 C17            0.4255     2.7176     0.1866 C.2     
  18 O18           -0.6723     2.5756    -0.3089 O.2     
  19 C19            0.8882     4.0868     0.6135 C.3     
  20 F20           -0.1135     5.0241     0.3392 F       
  21 F21            1.1581     4.0808     1.9862 F       
  22 F22            2.0497     4.4265    -0.0886 F       
  23 H23           -0.2839     0.4272    -0.4079 H       
  24 H24            1.3730    -0.1538    -0.6937 H       
  25 H25           -0.0717    -1.3469     1.1404 H       
  26 H26            1.8334     1.3566     2.8083 H       
  27 H27            3.5871     1.6732     2.7542 H       
  28 H28            3.3038     1.4401     0.1579 H       
  29 H29            2.7676     2.9463     0.9380 H       
  30 H30            5.0504    -0.1145     2.6535 H       
  31 H31            3.6835    -4.0104     1.5447 H       
  32 H32            1.4512    -3.0848     1.0654 H       
  33 H33            5.2325    -4.5851     2.8318 H       
  34 H34            5.7215    -4.2779     1.1481 H       
  35 H35            6.9464    -4.3079     2.4393 H       
  36 H36            0.5478     1.3504     2.3481 H       
  37 H37           -1.6993     0.9141     3.3842 H       
  38 H38           -1.7358     0.8754     1.6050 H       
  39 H39           -1.7524    -0.6460     2.5289 H       
  40 H40            1.7756    -0.2797     3.7566 H       
  41 H41            0.3536     0.3616     4.6138 H       
  42 H42            0.3016    -1.2675     3.8984 H       
@<TRIPOS>BOND
   1    1    2 1
   2    1    7 1
   3    1   17 am
   4    2    3 1
   5    2   23 1
   6    2   24 1
   7    3    4 1
   8    3   14 1
   9    3   25 1
  10    4    5 ar
  11    4   11 ar
  12    5    6 1
  13    5    8 ar
  14    6    7 1
  15    6   26 1
  16    6   27 1
  17    7   28 1
  18    7   29 1
  19    8    9 ar
  20    8   30 1
  21    9   10 ar
  22    9   12 1
  23   10   11 ar
  24   10   31 1
  25   11   32 1
  26   12   13 1
  27   13   33 1
  28   13   34 1
  29   13   35 1
  30   14   15 1
  31   14   16 1
  32   14   36 1
  33   15   37 1
  34   15   38 1
  35   15   39 1
  36   16   40 1
  37   16   41 1
  38   16   42 1
  39   17   18 2
  40   17   19 1
  41   19   20 1
  42   19   21 1
  43   19   22 1

#	End of record

