#	Name: ASD03330369
#	Creating user name:	WinNT
#	Creation time:	15. 06. 2019 20:37

#	Modifying user name:	WinNT
#	Modification time:	15. 06. 2019 20:37

#	Program:	/corina/corina34_cracker 3.40 0067  02.08.2006

@<TRIPOS>MOLECULE
ASD03330369
  59   61    0    0    0
SMALL
NO_CHARGES


@<TRIPOS>ATOM
   1 C1             0.0505     1.4545     0.1017 C.3     
   2 N2            -0.0183     0.0056    -0.1341 N.3     
   3 C3             0.1936    -0.3135    -1.5576 C.3     
   4 C4             1.4374     0.4039    -2.0147 C.2     
   5 N5             2.0209     1.4228    -1.3197 N.pl3   
   6 C6             1.4983     1.9384    -0.0513 C.3     
   7 C7             2.1822     0.2016    -3.1297 C.2     
   8 N8             3.2055     1.0862    -3.1064 N.2     
   9 C9             3.1141     1.8217    -2.0210 C.2     
  10 C10            4.0451     2.9024    -1.6287 C.ar    
  11 C11            4.9388     3.4297    -2.5615 C.ar    
  12 C12            1.9236    -0.8013    -4.1780 C.2     
  13 O13            0.9652    -1.5444    -4.0854 O.2     
  14 C14            2.4919    -1.8921    -6.2814 C.3     
  15 N15            2.7490    -0.8951    -5.2392 N.am    
  16 C16           -1.2929    -0.5457     0.3449 C.3     
  17 C17            5.8046     4.4372    -2.1901 C.ar    
  18 C18            5.7881     4.9253    -0.8944 C.ar    
  19 C19            4.9034     4.4058     0.0356 C.ar    
  20 C20            4.0290     3.4021    -0.3261 C.ar    
  21 C21            3.5687    -1.7883    -7.3633 C.3     
  22 C22           -1.3695    -2.0328    -0.0065 C.3     
  23 C23           -0.2744    -2.7917     0.7457 C.3     
  24 C24            1.9835    -2.5009    -9.1582 C.3     
  25 C25            3.3002    -2.8296    -8.4517 C.3     
  26 C26           -2.7394    -2.5822     0.3964 C.3     
  27 C27            4.4431    -2.8108    -9.4686 C.3     
  28 Cl28           6.8811     6.1930    -0.4339 Cl      
  29 H29           -0.5820     1.9697    -0.6212 H       
  30 H30           -0.3003     1.6745     1.1100 H       
  31 H31            0.3228    -1.3890    -1.6789 H       
  32 H32           -0.6623     0.0238    -2.1423 H       
  33 H33            1.5231     3.0281    -0.0591 H       
  34 H34            2.1012     1.5621     0.7751 H       
  35 H35            4.9528     3.0495    -3.5723 H       
  36 H36            2.5125    -2.8898    -5.8427 H       
  37 H37            1.5128    -1.7102    -6.7245 H       
  38 H38            3.5134    -0.3024    -5.3130 H       
  39 H39           -1.3580    -0.4241     1.4262 H       
  40 H40           -2.1191    -0.0170    -0.1305 H       
  41 H41            6.4970     4.8459    -2.9112 H       
  42 H42            4.8949     4.7903     1.0448 H       
  43 H43            3.3394     2.9976     0.4000 H       
  44 H44            3.5481    -0.7907    -7.8019 H       
  45 H45            4.5478    -1.9702    -6.9201 H       
  46 H46           -1.2283    -2.1603    -1.0798 H       
  47 H47           -0.3751    -2.6091     1.8156 H       
  48 H48           -0.3712    -3.8594     0.5486 H       
  49 H49            0.7033    -2.4472     0.4088 H       
  50 H50            1.1692    -2.5143    -8.4337 H       
  51 H51            2.0510    -1.5115    -9.6106 H       
  52 H52            1.7921    -3.2427    -9.9336 H       
  53 H53            3.2326    -3.8189    -7.9992 H       
  54 H54           -3.5196    -2.0416    -0.1395 H       
  55 H55           -2.7940    -3.6417     0.1460 H       
  56 H56           -2.8807    -2.4548     1.4697 H       
  57 H57            4.5107    -1.8214    -9.9210 H       
  58 H58            5.3812    -3.0449    -8.9653 H       
  59 H59            4.2518    -3.5526   -10.2440 H       
@<TRIPOS>BOND
   1    1    2 1
   2    1    6 1
   3    1   29 1
   4    1   30 1
   5    2    3 1
   6    2   16 1
   7    3    4 1
   8    3   31 1
   9    3   32 1
  10    4    5 1
  11    4    7 2
  12    5    6 1
  13    5    9 1
  14    6   33 1
  15    6   34 1
  16    7    8 1
  17    7   12 1
  18    8    9 2
  19    9   10 1
  20   10   11 ar
  21   10   20 ar
  22   11   17 ar
  23   11   35 1
  24   12   13 2
  25   12   15 am
  26   14   15 1
  27   14   21 1
  28   14   36 1
  29   14   37 1
  30   15   38 1
  31   16   22 1
  32   16   39 1
  33   16   40 1
  34   17   18 ar
  35   17   41 1
  36   18   19 ar
  37   18   28 1
  38   19   20 ar
  39   19   42 1
  40   20   43 1
  41   21   25 1
  42   21   44 1
  43   21   45 1
  44   22   23 1
  45   22   26 1
  46   22   46 1
  47   23   47 1
  48   23   48 1
  49   23   49 1
  50   24   25 1
  51   24   50 1
  52   24   51 1
  53   24   52 1
  54   25   27 1
  55   25   53 1
  56   26   54 1
  57   26   55 1
  58   26   56 1
  59   27   57 1
  60   27   58 1
  61   27   59 1

#	End of record

