#	Name: ASD02039277
#	Creating user name:	WinNT
#	Creation time:	15. 06. 2019 20:18

#	Modifying user name:	WinNT
#	Modification time:	15. 06. 2019 20:18

#	Program:	/corina/corina34_cracker 3.40 0067  02.08.2006

@<TRIPOS>MOLECULE
ASD02039277
  51   54    0    0    0
SMALL
NO_CHARGES


@<TRIPOS>ATOM
   1 C1             0.1460     1.0304    -0.2853 C.2     
   2 C2             0.4118    -0.2956    -0.2843 C.2     
   3 C3             1.1472     2.1488    -0.1523 C.3     
   4 N4             1.6217     2.5403    -1.4819 N.am    
   5 C5             0.9584     3.6278    -2.2055 C.3     
   6 C6             2.6684     1.8999    -2.0394 C.2     
   7 C7             3.4046     0.8824    -1.2692 C.2     
   8 C8             4.5412     0.2390    -1.6632 C.2     
   9 C9             1.9809     4.7154    -2.5407 C.3     
  10 N10            3.0788     0.4185    -0.0356 N.2     
  11 C11            3.9578    -0.4712     0.3251 C.2     
  12 N12            4.8804    -0.6075    -0.6626 N.pl3   
  13 O13            3.0051     2.1620    -3.1783 O.2     
  14 C14            6.0349    -1.5092    -0.6481 C.3     
  15 C15            1.2882     5.8512    -3.2964 C.3     
  16 C16            0.6804     5.3064    -4.5905 C.3     
  17 C17           -0.3422     4.2188    -4.2553 C.3     
  18 C18            0.3505     3.0830    -3.4996 C.3     
  19 C19           -0.8666    -0.9014    -0.4368 C.2     
  20 N20           -1.7288     0.0820    -0.5103 N.2     
  21 O21           -1.1804     1.1568    -0.4336 O.3     
  22 C22           -1.1632    -2.3544    -0.5004 C.ar    
  23 C23           -2.4765    -2.7938    -0.6531 C.ar    
  24 C24           -0.1288    -3.2836    -0.4133 C.ar    
  25 C25           -0.4102    -4.6335    -0.4734 C.ar    
  26 C26           -1.7163    -5.0644    -0.6203 C.ar    
  27 C27           -2.7466    -4.1461    -0.7121 C.ar    
  28 H28            1.3716    -0.7817    -0.1902 H       
  29 H29            0.6746     3.0039     0.3311 H       
  30 H30            1.9909     1.8115     0.4498 H       
  31 H31            0.1695     4.0502    -1.5832 H       
  32 H32            5.0691     0.3780    -2.5951 H       
  33 H33            2.4140     5.1035    -1.6188 H       
  34 H34            2.7698     4.2930    -3.1631 H       
  35 H35            3.9557    -1.0116     1.2602 H       
  36 H36            5.7503    -2.4707    -1.0754 H       
  37 H37            6.8428    -1.0747    -1.2368 H       
  38 H38            6.3706    -1.6532     0.3789 H       
  39 H39            0.4993     6.2736    -2.6741 H       
  40 H40            2.0167     6.6260    -3.5353 H       
  41 H41            0.1869     6.1155    -5.1289 H       
  42 H42            1.4692     4.8840    -5.2129 H       
  43 H43           -1.1311     4.6412    -3.6329 H       
  44 H44           -0.7753     3.8307    -5.1772 H       
  45 H45            1.1394     2.6606    -4.1219 H       
  46 H46           -0.3780     2.3082    -3.2607 H       
  47 H47           -3.2817    -2.0777    -0.7249 H       
  48 H48            0.8915    -2.9482    -0.2993 H       
  49 H49            0.3910    -5.3546    -0.4060 H       
  50 H50           -1.9320    -6.1215    -0.6676 H       
  51 H51           -3.7647    -4.4879    -0.8267 H       
@<TRIPOS>BOND
   1    1    2 2
   2    1    3 1
   3    1   21 1
   4    2   19 1
   5    2   28 1
   6    3    4 1
   7    3   29 1
   8    3   30 1
   9    4    5 1
  10    4    6 am
  11    5    9 1
  12    5   18 1
  13    5   31 1
  14    6    7 1
  15    6   13 2
  16    7    8 2
  17    7   10 1
  18    8   12 1
  19    8   32 1
  20    9   15 1
  21    9   33 1
  22    9   34 1
  23   10   11 2
  24   11   12 1
  25   11   35 1
  26   12   14 1
  27   14   36 1
  28   14   37 1
  29   14   38 1
  30   15   16 1
  31   15   39 1
  32   15   40 1
  33   16   17 1
  34   16   41 1
  35   16   42 1
  36   17   18 1
  37   17   43 1
  38   17   44 1
  39   18   45 1
  40   18   46 1
  41   19   20 2
  42   19   22 1
  43   20   21 1
  44   22   23 ar
  45   22   24 ar
  46   23   27 ar
  47   23   47 1
  48   24   25 ar
  49   24   48 1
  50   25   26 ar
  51   25   49 1
  52   26   27 ar
  53   26   50 1
  54   27   51 1

#	End of record

