#	Name: ASD01810753
#	Creating user name:	WinNT
#	Creation time:	15. 06. 2019 19:25

#	Modifying user name:	WinNT
#	Modification time:	15. 06. 2019 19:25

#	Program:	/corina/corina34_cracker 3.40 0067  02.08.2006

@<TRIPOS>MOLECULE
ASD01810753
  22   22    0    0    0
SMALL
NO_CHARGES


@<TRIPOS>ATOM
   1 C1            -0.0184     1.5028     0.0103 C.2     
   2 C2             0.0021    -0.0041     0.0020 C.3     
   3 O3             1.0236     2.1234     0.0037 O.2     
   4 N4            -1.1946     2.1607     0.0195 N.am    
   5 N5            -1.2131     3.5266     0.0270 N.3     
   6 O6             2.9825    -1.2504     1.6753 O.3     
   7 C7             2.1691    -0.1316     1.3033 C.3     
   8 C8             1.4513    -0.4944    -0.0145 C.3     
   9 C9             1.5099    -2.0463    -0.0052 C.3     
  10 C10            2.8767    -2.2849     0.6845 C.3     
  11 H11           -0.4983    -0.3791     0.8948 H       
  12 H12           -0.5153    -0.3696    -0.8850 H       
  13 H13           -2.0280     1.6644     0.0207 H       
  14 H14           -0.6957     3.8995    -0.7548 H       
  15 H15           -2.1599     3.8753     0.0334 H       
  16 H16            1.4333     0.0661     2.0829 H       
  17 H17            2.7957     0.7475     1.1532 H       
  18 H18            1.9868    -0.0880    -0.8725 H       
  19 H19            0.6942    -2.4667     0.5831 H       
  20 H20            1.5066    -2.4456    -1.0195 H       
  21 H21            3.6863    -2.1989    -0.0403 H       
  22 H22            2.8950    -3.2662     1.1586 H       
@<TRIPOS>BOND
   1    1    2 1
   2    1    3 2
   3    1    4 am
   4    2    8 1
   5    2   11 1
   6    2   12 1
   7    4    5 1
   8    4   13 1
   9    5   14 1
  10    5   15 1
  11    6    7 1
  12    6   10 1
  13    7    8 1
  14    7   16 1
  15    7   17 1
  16    8    9 1
  17    8   18 1
  18    9   10 1
  19    9   19 1
  20    9   20 1
  21   10   21 1
  22   10   22 1

#	End of record

