#	Name: ASD03950004
#	Creating user name:	WinNT
#	Creation time:	15. 06. 2019 20:48

#	Modifying user name:	WinNT
#	Modification time:	15. 06. 2019 20:48

#	Program:	/corina/corina34_cracker 3.40 0067  02.08.2006

@<TRIPOS>MOLECULE
ASD03950004
  46   48    0    0    0
SMALL
NO_CHARGES


@<TRIPOS>ATOM
   1 N1            -0.0169     1.3942     0.0097 N.pl3   
   2 N2             0.0021    -0.0041     0.0020 N.2     
   3 C3             1.2311    -0.4341    -0.0120 C.2     
   4 C4             2.1093     0.7334    -0.0141 C.ar    
   5 C5             3.4967     0.8990    -0.0268 C.ar    
   6 C6             4.0411     2.1756    -0.0256 C.ar    
   7 C7             3.2112     3.2979    -0.0112 C.ar    
   8 C8             1.8299     3.1501     0.0020 C.ar    
   9 C9             1.2663     1.8606    -0.0000 C.ar    
  10 C10            0.9576     4.3398     0.0177 C.2     
  11 O11           -0.2510     4.2074     0.0293 O.2     
  12 N12            1.5004     5.5734     0.0192 N.am    
  13 N13            0.9738    -4.6789    -0.0274 N.3     
  14 C14            1.5340    -4.0593     1.1804 C.3     
  15 C15            1.1384    -2.5817     1.2277 C.3     
  16 C16            1.6687    -1.8761    -0.0235 C.3     
  17 C17            1.1087    -2.5709    -1.2678 C.3     
  18 C18            1.5052    -4.0488    -1.2427 C.3     
  19 C19            5.5152     2.3486    -0.0391 C.ar    
  20 C20            6.0691     3.6270    -0.0380 C.ar    
  21 C21            7.4405     3.7821    -0.0501 C.ar    
  22 C22            8.2646     2.6713    -0.0639 C.ar    
  23 C23            7.7200     1.3999    -0.0656 C.ar    
  24 C24            6.3500     1.2332    -0.0472 C.ar    
  25 H25           -0.8151     1.9454     0.0166 H       
  26 H26            4.1444     0.0349    -0.0373 H       
  27 H27            3.6454     4.2868    -0.0100 H       
  28 H28            2.4646     5.6790     0.0099 H       
  29 H29            0.9269     6.3556     0.0295 H       
  30 H30            1.1402    -5.6741    -0.0337 H       
  31 H31            1.1456    -4.5677     2.0629 H       
  32 H32            2.6205    -4.1440     1.1614 H       
  33 H33            0.0522    -2.4967     1.2606 H       
  34 H34            1.5674    -2.1184     2.1162 H       
  35 H35            2.7575    -1.9263    -0.0361 H       
  36 H36            0.0221    -2.4857    -1.2741 H       
  37 H37            1.5165    -2.0998    -2.1621 H       
  38 H38            2.5919    -4.1335    -1.2503 H       
  39 H39            1.0959    -4.5495    -2.1201 H       
  40 H40            5.4265     4.4950    -0.0279 H       
  41 H41            7.8709     4.7727    -0.0492 H       
  42 H42            9.3372     2.7972    -0.0737 H       
  43 H43            8.3680     0.5359    -0.0771 H       
  44 H44            5.9258     0.2400    -0.0437 H       
  45 Cl45          14.3372    11.3556     7.1162 Cl      
  46 H46           14.3372    12.7256     7.1162 H       
@<TRIPOS>BOND
   1    1    2 1
   2    1    9 1
   3    1   25 1
   4    2    3 2
   5    3    4 1
   6    3   16 1
   7    4    5 ar
   8    4    9 ar
   9    5    6 ar
  10    5   26 1
  11    6    7 ar
  12    6   19 1
  13    7    8 ar
  14    7   27 1
  15    8    9 ar
  16    8   10 1
  17   10   11 2
  18   10   12 am
  19   12   28 1
  20   12   29 1
  21   13   14 1
  22   13   18 1
  23   13   30 1
  24   14   15 1
  25   14   31 1
  26   14   32 1
  27   15   16 1
  28   15   33 1
  29   15   34 1
  30   16   17 1
  31   16   35 1
  32   17   18 1
  33   17   36 1
  34   17   37 1
  35   18   38 1
  36   18   39 1
  37   19   20 ar
  38   19   24 ar
  39   20   21 ar
  40   20   40 1
  41   21   22 ar
  42   21   41 1
  43   22   23 ar
  44   22   42 1
  45   23   24 ar
  46   23   43 1
  47   24   44 1
  48   45   46 1

#	End of record

