#	Name: ASD06170256
#	Creating user name:	WinNT
#	Creation time:	15. 06. 2019 21:05

#	Modifying user name:	WinNT
#	Modification time:	15. 06. 2019 21:05

#	Program:	/corina/corina34_cracker 3.40 0067  02.08.2006

@<TRIPOS>MOLECULE
ASD06170256
  65   70    0    0    0
SMALL
NO_CHARGES


@<TRIPOS>ATOM
   1 N1            -0.4963     1.3095     0.3962 N.am    
   2 N2             0.1199     0.2890    -0.3337 N.pl3   
   3 C3             1.4555     0.2708    -0.0589 C.2     
   4 C4             1.7199     1.2888     0.8602 C.2     
   5 C5             0.4353     1.9439     1.1356 C.2     
   6 C6             3.0216     1.6339     1.4362 C.2     
   7 O7             4.0174     1.0187     1.1022 O.2     
   8 N8             3.1169     2.6328     2.3360 N.am    
   9 C9            -0.5651    -0.6228    -1.2533 C.3     
  10 C10            2.4457    -0.6598    -0.6308 C.ar    
  11 C11            4.3683     3.0309     2.8061 C.ar    
  12 C12            5.4441     2.1545     2.7242 C.ar    
  13 C13            6.6809     2.5595     3.1934 C.ar    
  14 C14            6.7997     3.8377     3.7328 C.ar    
  15 C15            5.6830     4.6573     3.7819 C.ar    
  16 N16            4.5196     4.2410     3.3204 N.ar    
  17 O17            7.9965     4.2763     4.2060 O.3     
  18 N18           10.8327     5.4456     1.4499 N.ar    
  19 C19           11.1750     5.4352     2.7436 C.ar    
  20 C20           10.2307     5.0402     3.7219 C.ar    
  21 C21            8.9339     4.6622     3.3060 C.ar    
  22 C22            8.6505     4.6977     1.9519 C.ar    
  23 C23            9.6315     5.0961     1.0530 C.ar    
  24 O24            0.2472     2.8817     1.8885 O.2     
  25 C25           -1.8583     1.6252     0.3605 C.ar    
  26 C26           -2.5070     1.7717    -0.8588 C.ar    
  27 C27           10.5922     5.0293     5.0774 C.ar    
  28 C28           11.8488     5.3983     5.4461 C.ar    
  29 C29           12.7893     5.7901     4.4884 C.ar    
  30 C30           12.4651     5.8118     3.1512 C.ar    
  31 C31           14.3128     6.1121     6.2842 C.3     
  32 O32           14.0371     6.1544     4.8827 O.3     
  33 C33           -3.8522     2.0830    -0.8906 C.ar    
  34 C34           -4.5530     2.2493     0.2899 C.ar    
  35 C35           -3.9100     2.1046     1.5056 C.ar    
  36 C36           -2.5664     1.7872     1.5443 C.ar    
  37 C37            3.5190    -0.1788    -1.3936 C.ar    
  38 C38            4.4199    -1.0942    -1.9074 C.ar    
  39 C39            4.2351    -2.4418    -1.6548 C.ar    
  40 N40            3.2151    -2.8671    -0.9335 N.ar    
  41 C41            2.3339    -2.0366    -0.4172 C.ar    
  42 H42            2.3152     3.0748     2.6566 H       
  43 H43           -1.6377    -0.4314    -1.2230 H       
  44 H44           -0.1959    -0.4623    -2.2662 H       
  45 H45           -0.3713    -1.6531    -0.9549 H       
  46 H46            5.3159     1.1696     2.2998 H       
  47 H47            7.5343     1.8996     3.1429 H       
  48 H48            5.7675     5.6500     4.1989 H       
  49 H49            7.6706     4.4163     1.5955 H       
  50 H50            9.3991     5.1200    -0.0015 H       
  51 H51           -1.9601     1.6426    -1.7811 H       
  52 H52            9.8746     4.7290     5.8265 H       
  53 H53           12.1229     5.3888     6.4907 H       
  54 H54           13.1987     6.1161     2.4193 H       
  55 H55           14.1750     5.0950     6.6510 H       
  56 H56           15.3414     6.4261     6.4618 H       
  57 H57           13.6324     6.7828     6.8088 H       
  58 H58           -4.3573     2.1970    -1.8384 H       
  59 H59           -5.6048     2.4930     0.2623 H       
  60 H60           -4.4600     2.2358     2.4257 H       
  61 H61           -2.0648     1.6740     2.4940 H       
  62 H62            3.6392     0.8790    -1.5756 H       
  63 H63            5.2589    -0.7604    -2.4999 H       
  64 H64            4.9374    -3.1581    -2.0550 H       
  65 H65            1.5123    -2.4229     0.1677 H       
@<TRIPOS>BOND
   1    1    2 1
   2    1    5 am
   3    1   25 1
   4    2    3 1
   5    2    9 1
   6    3    4 2
   7    3   10 1
   8    4    5 1
   9    4    6 1
  10    5   24 2
  11    6    7 2
  12    6    8 am
  13    8   11 1
  14    8   42 1
  15    9   43 1
  16    9   44 1
  17    9   45 1
  18   10   37 ar
  19   10   41 ar
  20   11   12 ar
  21   11   16 ar
  22   12   13 ar
  23   12   46 1
  24   13   14 ar
  25   13   47 1
  26   14   15 ar
  27   14   17 1
  28   15   16 ar
  29   15   48 1
  30   17   21 1
  31   18   19 ar
  32   18   23 ar
  33   19   20 ar
  34   19   30 ar
  35   20   21 ar
  36   20   27 ar
  37   21   22 ar
  38   22   23 ar
  39   22   49 1
  40   23   50 1
  41   25   26 ar
  42   25   36 ar
  43   26   33 ar
  44   26   51 1
  45   27   28 ar
  46   27   52 1
  47   28   29 ar
  48   28   53 1
  49   29   30 ar
  50   29   32 1
  51   30   54 1
  52   31   32 1
  53   31   55 1
  54   31   56 1
  55   31   57 1
  56   33   34 ar
  57   33   58 1
  58   34   35 ar
  59   34   59 1
  60   35   36 ar
  61   35   60 1
  62   36   61 1
  63   37   38 ar
  64   37   62 1
  65   38   39 ar
  66   38   63 1
  67   39   40 ar
  68   39   64 1
  69   40   41 ar
  70   41   65 1

#	End of record

