#	Name: ASD03330406
#	Creating user name:	WinNT
#	Creation time:	15. 06. 2019 20:37

#	Modifying user name:	WinNT
#	Modification time:	15. 06. 2019 20:37

#	Program:	/corina/corina34_cracker 3.40 0067  02.08.2006

@<TRIPOS>MOLECULE
ASD03330406
  68   71    0    0    0
SMALL
NO_CHARGES


@<TRIPOS>ATOM
   1 C1             0.9477    -2.0991     0.3187 C.3     
   2 N2             0.6728    -2.7101    -0.9906 N.am    
   3 C3             0.9796    -1.9232    -2.2004 C.3     
   4 C4             2.3197    -1.2685    -1.9709 C.2     
   5 N5             2.9593    -1.2439    -0.7745 N.pl3   
   6 C6             2.4546    -1.8551     0.4573 C.3     
   7 C7             3.1029    -0.6125    -2.8646 C.2     
   8 N8             4.2064    -0.1889    -2.2081 N.2     
   9 C9             4.1261    -0.5628    -0.9518 C.2     
  10 C10            5.1338    -0.2895     0.0964 C.ar    
  11 C11            6.1238     0.6701    -0.1169 C.ar    
  12 C12            2.8047    -0.4011    -4.2922 C.2     
  13 O13            1.7728    -0.8339    -4.7685 O.2     
  14 C14            3.3792     0.4823    -6.4892 C.3     
  15 N15            3.6756     0.2721    -5.0700 N.am    
  16 C16            0.1566    -3.9517    -1.0826 C.2     
  17 O17           -0.0010    -4.6204    -0.0794 O.2     
  18 C18            7.0605     0.9207     0.8648 C.ar    
  19 C19            7.0193     0.2228     2.0586 C.ar    
  20 C20            6.0402    -0.7300     2.2762 C.ar    
  21 C21            5.0946    -0.9861     1.3046 C.ar    
  22 N22           -0.1850    -4.4520    -2.2865 N.am    
  23 C23           -0.8003    -5.7059    -2.3742 C.ar    
  24 C24            3.1961     2.9256    -6.0005 C.3     
  25 C25            2.5022     1.7258    -6.6483 C.3     
  26 C26            2.2807     2.0068    -8.1359 C.3     
  27 C27            4.6668     0.6753    -7.2480 C.2     
  28 N28            4.7344     0.3504    -8.5543 N.am    
  29 C29            1.1526     1.4885    -5.9676 C.3     
  30 O30            5.6423     1.1231    -6.6833 O.2     
  31 C31            6.0130     0.4335    -9.2646 C.3     
  32 C32           -0.5352    -6.5370    -3.4546 C.ar    
  33 C33           -1.1436    -7.7741    -3.5380 C.ar    
  34 C34           -2.0159    -8.1853    -2.5470 C.ar    
  35 C35           -2.2820    -7.3601    -1.4698 C.ar    
  36 C36           -1.6727    -6.1240    -1.3780 C.ar    
  37 H37            0.4169    -1.1503     0.3961 H       
  38 H38            0.6133    -2.7694     1.1105 H       
  39 H39            1.0303    -2.5802    -3.0686 H       
  40 H40            0.2147    -1.1618    -2.3528 H       
  41 H41            2.6394    -1.1862     1.2978 H       
  42 H42            2.9630    -2.8041     0.6276 H       
  43 H43            6.1572     1.2153    -1.0485 H       
  44 H44            2.8523    -0.3868    -6.8829 H       
  45 H45            4.4986     0.6173    -4.6901 H       
  46 H46            7.8276     1.6630     0.7007 H       
  47 H47            7.7550     0.4223     2.8237 H       
  48 H48            6.0133    -1.2715     3.2102 H       
  49 H49            4.3307    -1.7302     1.4756 H       
  50 H50           -0.0044    -3.9430    -3.0922 H       
  51 H51            4.1576     3.0947    -6.4854 H       
  52 H52            2.5713     3.8115    -6.1138 H       
  53 H53            3.3539     2.7255    -4.9407 H       
  54 H54            3.2279     2.2843    -8.5982 H       
  55 H55            1.8883     1.1125    -8.6200 H       
  56 H56            1.5680     2.8237    -8.2492 H       
  57 H57            3.9365     0.0615    -9.0241 H       
  58 H58            0.5278     2.3744    -6.0810 H       
  59 H59            0.6582     0.6337    -6.4292 H       
  60 H60            1.3104     1.2883    -4.9078 H       
  61 H61            6.3827     1.4582    -9.2287 H       
  62 H62            6.7359    -0.2304    -8.7904 H       
  63 H63            5.8718     0.1343   -10.3032 H       
  64 H64            0.1458    -6.2162    -4.2291 H       
  65 H65           -0.9381    -8.4208    -4.3782 H       
  66 H66           -2.4907    -9.1530    -2.6147 H       
  67 H67           -2.9638    -7.6841    -0.6975 H       
  68 H68           -1.8806    -5.4800    -0.5362 H       
@<TRIPOS>BOND
   1    1    2 1
   2    1    6 1
   3    1   37 1
   4    1   38 1
   5    2    3 1
   6    2   16 am
   7    3    4 1
   8    3   39 1
   9    3   40 1
  10    4    5 1
  11    4    7 2
  12    5    6 1
  13    5    9 1
  14    6   41 1
  15    6   42 1
  16    7    8 1
  17    7   12 1
  18    8    9 2
  19    9   10 1
  20   10   11 ar
  21   10   21 ar
  22   11   18 ar
  23   11   43 1
  24   12   13 2
  25   12   15 am
  26   14   15 1
  27   14   27 1
  28   14   25 1
  29   14   44 1
  30   15   45 1
  31   16   17 2
  32   16   22 am
  33   18   19 ar
  34   18   46 1
  35   19   20 ar
  36   19   47 1
  37   20   21 ar
  38   20   48 1
  39   21   49 1
  40   22   23 1
  41   22   50 1
  42   23   32 ar
  43   23   36 ar
  44   24   25 1
  45   24   51 1
  46   24   52 1
  47   24   53 1
  48   25   29 1
  49   25   26 1
  50   26   54 1
  51   26   55 1
  52   26   56 1
  53   27   28 am
  54   27   30 2
  55   28   31 1
  56   28   57 1
  57   29   58 1
  58   29   59 1
  59   29   60 1
  60   31   61 1
  61   31   62 1
  62   31   63 1
  63   32   33 ar
  64   32   64 1
  65   33   34 ar
  66   33   65 1
  67   34   35 ar
  68   34   66 1
  69   35   36 ar
  70   35   67 1
  71   36   68 1

#	End of record

