#	Name: ASD06020064
#	Creating user name:	WinNT
#	Creation time:	15. 06. 2019 21:04

#	Modifying user name:	WinNT
#	Modification time:	15. 06. 2019 21:04

#	Program:	/corina/corina34_cracker 3.40 0067  02.08.2006

@<TRIPOS>MOLECULE
ASD06020064
  38   41    0    0    0
SMALL
NO_CHARGES


@<TRIPOS>ATOM
   1 C1            -0.0187     1.5258     0.0104 C.3     
   2 C2             0.0021    -0.0041     0.0020 C.3     
   3 C3             1.3165     0.7789    -0.0063 C.3     
   4 C4            -0.4176     2.2092     1.2929 C.2     
   5 O5            -0.7068     1.5482     2.2678 O.2     
   6 N6            -0.4530     3.5550     1.3566 N.am    
   7 C7            -0.3838    -0.7229     1.2963 C.3     
   8 O8            -0.4195    -2.1328     1.0657 O.3     
   9 C9            -0.8221     4.1873     2.5431 C.ar    
  10 C10           -0.8575     5.5836     2.6049 C.ar    
  11 C11           -1.2294     6.2125     3.7992 C.ar    
  12 C12           -1.5543     5.3741     4.8953 C.ar    
  13 C13           -1.4935     4.0240     4.7476 C.ar    
  14 N14           -1.1418     3.4636     3.6014 N.ar    
  15 S15           -0.5081     6.8272     1.4095 S.3     
  16 C16           -0.8827     8.0785     2.5877 C.2     
  17 N17           -1.2202     7.5436     3.7157 N.2     
  18 C18           -0.8202     9.5320     2.3263 C.ar    
  19 C19           -1.1397    10.4411     3.3372 C.ar    
  20 C20           -1.0786    11.7977     3.0859 C.ar    
  21 C21           -0.7022    12.2568     1.8365 C.ar    
  22 C22           -0.3844    11.3622     0.8304 C.ar    
  23 C23           -0.4359    10.0029     1.0688 C.ar    
  24 Cl24          -0.0297     8.8821    -0.1931 Cl      
  25 Cl25          -1.6129     9.8672     4.9058 Cl      
  26 H26           -0.3248     2.0300    -0.9061 H       
  27 H27           -0.2904    -0.5063    -0.9201 H       
  28 H28            1.8888     0.7918    -0.9339 H       
  29 H29            1.9064     0.7818     0.9103 H       
  30 H30           -0.2217     4.0837     0.5769 H       
  31 H31            0.3518    -0.4997     2.0691 H       
  32 H32           -1.3670    -0.3829     1.6215 H       
  33 H33           -0.6579    -2.6529     1.8453 H       
  34 H34           -1.8477     5.8050     5.8412 H       
  35 H35           -1.7421     3.3918     5.5873 H       
  36 H36           -1.3257    12.5019     3.8666 H       
  37 H37           -0.6565    13.3188     1.6455 H       
  38 H38           -0.0913    11.7278    -0.1427 H       
@<TRIPOS>BOND
   1    1    2 1
   2    1    3 1
   3    1    4 1
   4    1   26 1
   5    2    3 1
   6    2    7 1
   7    2   27 1
   8    3   28 1
   9    3   29 1
  10    4    5 2
  11    4    6 am
  12    6    9 1
  13    6   30 1
  14    7    8 1
  15    7   31 1
  16    7   32 1
  17    8   33 1
  18    9   10 ar
  19    9   14 ar
  20   10   11 ar
  21   10   15 1
  22   11   12 ar
  23   11   17 1
  24   12   13 ar
  25   12   34 1
  26   13   14 ar
  27   13   35 1
  28   15   16 1
  29   16   17 2
  30   16   18 1
  31   18   19 ar
  32   18   23 ar
  33   19   20 ar
  34   19   25 1
  35   20   21 ar
  36   20   36 1
  37   21   22 ar
  38   21   37 1
  39   22   23 ar
  40   22   38 1
  41   23   24 1

#	End of record

