#	Name: ASD01883269
#	Creating user name:	WinNT
#	Creation time:	15. 06. 2019 19:46

#	Modifying user name:	WinNT
#	Modification time:	15. 06. 2019 19:46

#	Program:	/corina/corina34_cracker 3.40 0067  02.08.2006

@<TRIPOS>MOLECULE
ASD01883269
  51   53    0    0    0
SMALL
NO_CHARGES


@<TRIPOS>ATOM
   1 N1            -0.0162     1.3417     0.0094 N.am    
   2 C2             0.0021    -0.0041     0.0020 C.2     
   3 C3            -1.2159    -0.7274     0.0102 C.2     
   4 C4            -2.4262    -0.0109     0.0261 C.2     
   5 C5            -2.3786     1.3974     0.0332 C.2     
   6 C6            -1.1851     2.0327     0.0299 C.2     
   7 O7             1.0657    -0.6000    -0.0122 O.2     
   8 C8            -1.2149    -2.1593     0.0021 C.1     
   9 N9            -1.2142    -3.2953    -0.0044 N.1     
  10 C10            1.2513     2.0763     0.0013 C.3     
  11 C11            1.6788     2.3398    -1.4440 C.3     
  12 C12            3.0025     3.1070    -1.4525 C.3     
  13 C13            4.1050     2.2284    -0.8581 C.3     
  14 C14            3.3670     3.4792    -2.8911 C.3     
  15 C15           -3.7215    -0.7207     0.0347 C.ar    
  16 C16           -4.5704    -0.6152     1.1398 C.ar    
  17 C17           -5.7770    -1.2779     1.1448 C.ar    
  18 C18           -6.1515    -2.0529     0.0510 C.ar    
  19 C19           -5.3080    -2.1603    -1.0509 C.ar    
  20 C20           -4.1031    -1.4946    -1.0647 C.ar    
  21 N21           -7.3720    -2.7222     0.0593 N.3     
  22 C22           -7.5672    -3.4774    -1.1869 C.3     
  23 C23           -8.8903    -4.2439    -1.1108 C.3     
  24 O24           -9.9557    -3.3224    -0.8636 O.3     
  25 C25           -9.7982    -2.5704     0.3426 C.3     
  26 C26           -8.4843    -1.7869     0.2813 C.3     
  27 H27           -3.2949     1.9689     0.0450 H       
  28 H28           -1.1610     3.1124     0.0354 H       
  29 H29            1.1243     3.0257     0.5214 H       
  30 H30            2.0168     1.4857     0.5046 H       
  31 H31            1.8057     1.3903    -1.9642 H       
  32 H32            0.9133     2.9303    -1.9474 H       
  33 H33            2.9004     4.0143    -0.8572 H       
  34 H34            4.2071     1.3210    -1.4534 H       
  35 H35            5.0481     2.7749    -0.8642 H       
  36 H36            3.8454     1.9632     0.1668 H       
  37 H37            2.5815     4.1051    -3.3146 H       
  38 H38            4.3100     4.0258    -2.8972 H       
  39 H39            3.4691     2.5719    -3.4864 H       
  40 H40           -4.2801    -0.0146     1.9891 H       
  41 H41           -6.4335    -1.1968     1.9985 H       
  42 H42           -5.6012    -2.7627    -1.8980 H       
  43 H43           -3.4492    -1.5781    -1.9201 H       
  44 H44           -7.5943    -2.7873    -2.0302 H       
  45 H45           -6.7457    -4.1816    -1.3182 H       
  46 H46           -9.0669    -4.7597    -2.0547 H       
  47 H47           -8.8433    -4.9717    -0.3008 H       
  48 H48          -10.6314    -1.8759     0.4500 H       
  49 H49           -9.7776    -3.2496     1.1949 H       
  50 H50           -8.3322    -1.2572     1.2217 H       
  51 H51           -8.5260    -1.0698    -0.5385 H       
@<TRIPOS>BOND
   1    1    2 am
   2    1   10 1
   3    1    6 1
   4    2    3 1
   5    2    7 2
   6    3    4 2
   7    3    8 1
   8    4    5 1
   9    4   15 1
  10    5    6 2
  11    5   27 1
  12    6   28 1
  13    8    9 3
  14   10   11 1
  15   10   29 1
  16   10   30 1
  17   11   12 1
  18   11   31 1
  19   11   32 1
  20   12   13 1
  21   12   14 1
  22   12   33 1
  23   13   34 1
  24   13   35 1
  25   13   36 1
  26   14   37 1
  27   14   38 1
  28   14   39 1
  29   15   16 ar
  30   15   20 ar
  31   16   17 ar
  32   16   40 1
  33   17   18 ar
  34   17   41 1
  35   18   19 ar
  36   18   21 1
  37   19   20 ar
  38   19   42 1
  39   20   43 1
  40   21   22 1
  41   21   26 1
  42   22   23 1
  43   22   44 1
  44   22   45 1
  45   23   24 1
  46   23   46 1
  47   23   47 1
  48   24   25 1
  49   25   26 1
  50   25   48 1
  51   25   49 1
  52   26   50 1
  53   26   51 1

#	End of record

