#	Name: ASD01917890
#	Creating user name:	WinNT
#	Creation time:	15. 06. 2019 20:10

#	Modifying user name:	WinNT
#	Modification time:	15. 06. 2019 20:10

#	Program:	/corina/corina34_cracker 3.40 0067  02.08.2006

@<TRIPOS>MOLECULE
ASD01917890
  46   50    0    0    0
SMALL
NO_CHARGES


@<TRIPOS>ATOM
   1 C1            -0.0147     1.3274     0.0002 C.2     
   2 C2            -0.0053    -0.0187     0.0027 C.2     
   3 C3            -1.2754    -0.8553     0.0142 C.3     
   4 C4            -2.4420     0.0109     0.4951 C.3     
   5 N5            -2.4110     1.2979    -0.2158 N.am    
   6 C6            -1.2588     2.1855     0.0203 C.3     
   7 C7            -3.4039     1.6536    -1.0549 C.2     
   8 O8            -4.2939     0.8652    -1.3132 O.2     
   9 S9             1.6466     1.9021    -0.0224 S.3     
  10 C10            2.2121     0.2891    -0.0219 C.2     
  11 N11            1.2188    -0.5284    -0.0073 N.2     
  12 C12            3.6635    -0.1165    -0.0368 C.3     
  13 O13            4.1069    -0.2500    -1.3886 O.3     
  14 C14            5.4024    -0.6133    -1.5800 C.ar    
  15 C15            5.8997    -0.7614    -2.8666 C.ar    
  16 C16            7.2169    -1.1309    -3.0585 C.ar    
  17 C17            8.0395    -1.3530    -1.9695 C.ar    
  18 C18            7.5461    -1.2065    -0.6862 C.ar    
  19 C19            6.2313    -0.8312    -0.4891 C.ar    
  20 C20           -3.4116     2.9936    -1.6579 C.2     
  21 C21           -2.9907     4.1533    -1.0763 C.2     
  22 N22           -3.1519     5.1854    -1.9414 N.pl3   
  23 C23           -3.6860     4.7398    -3.1256 C.ar    
  24 C24           -3.8695     3.3488    -3.0119 C.ar    
  25 C25           -4.0465     5.3525    -4.3242 C.ar    
  26 C26           -4.5687     4.5782    -5.3366 C.ar    
  27 N27           -4.7335     3.2739    -5.1930 N.ar    
  28 C28           -4.3969     2.6422    -4.0865 C.ar    
  29 H29           -1.4819    -1.2182    -0.9927 H       
  30 H30           -1.1480    -1.7020     0.6887 H       
  31 H31           -3.3834    -0.4977     0.2872 H       
  32 H32           -2.3494     0.1844     1.5672 H       
  33 H33           -1.3591     2.6724     0.9903 H       
  34 H34           -1.2021     2.9363    -0.7678 H       
  35 H35            4.2587     0.6449     0.4673 H       
  36 H36            3.7797    -1.0694     0.4796 H       
  37 H37            5.2575    -0.5884    -3.7175 H       
  38 H38            7.6044    -1.2467    -4.0599 H       
  39 H39            9.0690    -1.6418    -2.1216 H       
  40 H40            8.1904    -1.3812     0.1627 H       
  41 H41            5.8464    -0.7169     0.5135 H       
  42 H42           -2.5896     4.2372    -0.0771 H       
  43 H43           -2.9226     6.1083    -1.7504 H       
  44 H44           -3.9188     6.4167    -4.4569 H       
  45 H45           -4.8502     5.0466    -6.2681 H       
  46 H46           -4.5469     1.5756    -4.0081 H       
@<TRIPOS>BOND
   1    1    2 2
   2    1    9 1
   3    1    6 1
   4    2    3 1
   5    2   11 1
   6    3    4 1
   7    3   29 1
   8    3   30 1
   9    4    5 1
  10    4   31 1
  11    4   32 1
  12    5    6 1
  13    5    7 am
  14    6   33 1
  15    6   34 1
  16    7    8 2
  17    7   20 1
  18    9   10 1
  19   10   11 2
  20   10   12 1
  21   12   13 1
  22   12   35 1
  23   12   36 1
  24   13   14 1
  25   14   15 ar
  26   14   19 ar
  27   15   16 ar
  28   15   37 1
  29   16   17 ar
  30   16   38 1
  31   17   18 ar
  32   17   39 1
  33   18   19 ar
  34   18   40 1
  35   19   41 1
  36   20   21 2
  37   20   24 1
  38   21   22 1
  39   21   42 1
  40   22   23 1
  41   22   43 1
  42   23   25 ar
  43   23   24 ar
  44   24   28 ar
  45   25   26 ar
  46   25   44 1
  47   26   27 ar
  48   26   45 1
  49   27   28 ar
  50   28   46 1

#	End of record

