#	Name: ASD09116258
#	Creating user name:	WinNT
#	Creation time:	15. 06. 2019 21:21

#	Modifying user name:	WinNT
#	Modification time:	15. 06. 2019 21:21

#	Program:	/corina/corina34_cracker 3.40 0067  02.08.2006

@<TRIPOS>MOLECULE
ASD09116258
  61   66    0    0    0
SMALL
NO_CHARGES


@<TRIPOS>ATOM
   1 N1            -0.0277     1.4158     0.1297 N.pl3   
   2 N2            -0.0175     0.0156     0.2356 N.2     
   3 C3             1.2682     1.8064     0.1006 C.2     
   4 N4             2.0181     0.7278     0.1824 N.2     
   5 C5             1.2396    -0.3570     0.2642 C.2     
   6 N6             1.7235     3.1082     0.0023 N.pl3   
   7 C7             3.0937     3.3795     0.0963 C.ar    
   8 C8             3.9047     2.5648     0.8643 C.ar    
   9 C9             5.2717     2.8377     0.9566 C.ar    
  10 C10            5.8067     3.9386     0.2666 C.ar    
  11 C11            4.9796     4.7468    -0.5009 C.ar    
  12 C12            3.6336     4.4660    -0.5892 C.ar    
  13 C13           -1.1516     2.2411     0.0617 C.ar    
  14 N14           -1.0704     3.5042     0.4523 N.ar    
  15 N15           -2.0771     4.3030     0.4191 N.ar    
  16 C16           -3.2641     3.9055    -0.0103 C.ar    
  17 C17           -3.4392     2.5946    -0.4628 C.ar    
  18 C18           -2.3606     1.7364    -0.4239 C.ar    
  19 C19           -4.4387     4.8079     0.0011 C.ar    
  20 C20           -5.6333     4.3533     0.5620 C.ar    
  21 C21           -5.6813     2.9863     1.1876 C.3     
  22 C22           -5.7569     1.8910     0.1274 C.3     
  23 C23           -4.7714     2.1658    -1.0053 C.3     
  24 C24           -4.3662     6.0873    -0.5386 C.ar    
  25 C25           -5.4861     6.8962    -0.5332 C.ar    
  26 C26           -6.6737     6.4341     0.0043 C.ar    
  27 C27           -6.7476     5.1644     0.5507 C.ar    
  28 N28            1.6919    -1.6723     0.3646 N.pl3   
  29 N29            6.3016     2.2421     1.6113 N.2     
  30 C30            7.4048     2.8898     1.3734 C.2     
  31 N31            7.1598     3.9447     0.5508 N.pl3   
  32 C32            8.7572     2.5243     1.9288 C.3     
  33 N33            8.9130     3.1132     3.2656 N.3     
  34 C34           10.1107     2.5890     3.9354 C.3     
  35 C35            8.9496     4.5800     3.1936 C.3     
  36 H36            1.0936     3.8335    -0.1318 H       
  37 H37            3.4833     1.7213     1.3910 H       
  38 H38            5.3912     5.5929    -1.0311 H       
  39 H39            2.9918     5.0962    -1.1870 H       
  40 H40           -2.4491     0.7103    -0.7490 H       
  41 H41           -4.7850     2.8382     1.7900 H       
  42 H42           -6.5578     2.9198     1.8322 H       
  43 H43           -5.5185     0.9311     0.5855 H       
  44 H44           -6.7680     1.8532    -0.2780 H       
  45 H45           -5.1694     2.9549    -1.6433 H       
  46 H46           -4.6426     1.2590    -1.5963 H       
  47 H47           -3.4389     6.4470    -0.9596 H       
  48 H48           -5.4341     7.8915    -0.9493 H       
  49 H49           -7.5483     7.0677    -0.0019 H       
  50 H50           -7.6782     4.8095     0.9683 H       
  51 H51            2.6439    -1.8580     0.3792 H       
  52 H52            1.0546    -2.4014     0.4198 H       
  53 H53            7.8132     4.5829     0.2240 H       
  54 H54            8.8406     1.4397     1.9977 H       
  55 H55            9.5363     2.9076     1.2699 H       
  56 H56           10.9932     2.8294     3.3425 H       
  57 H57           10.2021     3.0414     4.9229 H       
  58 H58           10.0255     1.5072     4.0379 H       
  59 H59            8.0203     4.9456     2.7568 H       
  60 H60            9.0656     4.9902     4.1968 H       
  61 H61            9.7900     4.8925     2.5738 H       
@<TRIPOS>BOND
   1    1    2 1
   2    1    3 1
   3    1   13 1
   4    2    5 2
   5    3    4 2
   6    3    6 1
   7    4    5 1
   8    5   28 1
   9    6    7 1
  10    6   36 1
  11    7    8 ar
  12    7   12 ar
  13    8    9 ar
  14    8   37 1
  15    9   10 ar
  16    9   29 1
  17   10   11 ar
  18   10   31 1
  19   11   12 ar
  20   11   38 1
  21   12   39 1
  22   13   14 ar
  23   13   18 ar
  24   14   15 ar
  25   15   16 ar
  26   16   17 ar
  27   16   19 1
  28   17   18 ar
  29   17   23 1
  30   18   40 1
  31   19   20 ar
  32   19   24 ar
  33   20   21 1
  34   20   27 ar
  35   21   22 1
  36   21   41 1
  37   21   42 1
  38   22   23 1
  39   22   43 1
  40   22   44 1
  41   23   45 1
  42   23   46 1
  43   24   25 ar
  44   24   47 1
  45   25   26 ar
  46   25   48 1
  47   26   27 ar
  48   26   49 1
  49   27   50 1
  50   28   51 1
  51   28   52 1
  52   29   30 2
  53   30   31 1
  54   30   32 1
  55   31   53 1
  56   32   33 1
  57   32   54 1
  58   32   55 1
  59   33   34 1
  60   33   35 1
  61   34   56 1
  62   34   57 1
  63   34   58 1
  64   35   59 1
  65   35   60 1
  66   35   61 1

#	End of record

