#	Name: ASD01880146
#	Creating user name:	WinNT
#	Creation time:	15. 06. 2019 19:40

#	Modifying user name:	WinNT
#	Modification time:	15. 06. 2019 19:40

#	Program:	/corina/corina34_cracker 3.40 0067  02.08.2006

@<TRIPOS>MOLECULE
ASD01880146
  62   66    0    0    0
SMALL
NO_CHARGES


@<TRIPOS>ATOM
   1 C1            -0.0168     1.3866     0.0097 C.ar    
   2 C2             0.0021    -0.0041     0.0020 C.ar    
   3 C3            -1.1908    -0.7171     0.0091 C.ar    
   4 C4            -2.3920    -0.0608     0.0240 C.ar    
   5 C5            -2.4274     1.3358     0.0323 C.ar    
   6 C6            -1.2195     2.0577     0.0305 C.ar    
   7 C7            -3.8022    -0.6015     0.0346 C.3     
   8 C8            -4.7307     0.6205     0.0505 C.3     
   9 C9            -3.8138     1.8193     0.0485 C.2     
  10 Cl10          -1.2453     3.7935     0.0407 Cl      
  11 Cl11           1.4742     2.2757     0.0002 Cl      
  12 O12           -4.1620     2.9813     0.0585 O.2     
  13 C13            2.5330    -2.6494    -0.0363 C.ar    
  14 C14            1.1324    -2.0935    -0.0200 C.3     
  15 O15            1.1867    -0.6655    -0.0128 O.3     
  16 C16            3.1847    -2.9099     1.1559 C.ar    
  17 C17            4.4673    -3.4185     1.1476 C.ar    
  18 C18            5.1067    -3.6703    -0.0662 C.ar    
  19 C19            4.4442    -3.4060    -1.2649 C.ar    
  20 C20            3.1597    -2.9023    -1.2433 C.ar    
  21 C21            6.4827    -4.2154    -0.0822 C.2     
  22 N22            7.2203    -4.5093     0.9677 N.2     
  23 N23            8.3646    -4.9620     0.6008 N.2     
  24 N24            8.4446    -4.9916    -0.6854 N.2     
  25 N25            7.2197    -4.5119    -1.1812 N.pl3   
  26 C26           -5.6170     0.6290    -1.1966 C.3     
  27 C27           -5.5927     0.6147     1.3145 C.3     
  28 C28           -4.6886     0.6398     2.5486 C.3     
  29 C29           -5.5506     0.6340     3.8126 C.3     
  30 C30           -4.6464     0.6591     5.0466 C.3     
  31 C31           -4.7546     0.6686    -2.4826 C.3     
  32 C32           -5.6705     0.0712    -3.5708 C.3     
  33 C33           -6.7035    -0.8066    -2.8427 C.3     
  34 C34           -6.3793    -0.7119    -1.3374 C.3     
  35 H35           -1.1699    -1.7969     0.0024 H       
  36 H36           -3.9818    -1.1967    -0.8607 H       
  37 H37           -3.9646    -1.2069     0.9263 H       
  38 H38            0.5967    -2.4322    -0.9067 H       
  39 H39            0.6136    -2.4418     0.8731 H       
  40 H40            2.6885    -2.7145     2.0951 H       
  41 H41            4.9753    -3.6208     2.0790 H       
  42 H42            4.9341    -3.5989    -2.2078 H       
  43 H43            2.6456    -2.6975    -2.1708 H       
  44 H44            6.9598    -4.4090    -2.1101 H       
  45 H45           -6.3102     1.4698    -1.1703 H       
  46 H46           -6.2375     1.4935     1.3186 H       
  47 H47           -6.2062    -0.2861     1.3318 H       
  48 H48           -4.0438    -0.2390     2.5445 H       
  49 H49           -4.0751     1.5406     2.5312 H       
  50 H50           -6.1954     1.5128     3.8167 H       
  51 H51           -6.1641    -0.2668     3.8299 H       
  52 H52           -5.2606     0.6549     5.9471 H       
  53 H53           -4.0017    -0.2198     5.0425 H       
  54 H54           -4.0330     1.5599     5.0293 H       
  55 H55           -4.4869     1.6956    -2.7310 H       
  56 H56           -3.8594     0.0589    -2.3605 H       
  57 H57           -6.1757     0.8701    -4.1135 H       
  58 H58           -5.0841    -0.5362    -4.2602 H       
  59 H59           -7.7100    -0.4336    -3.0320 H       
  60 H60           -6.6184    -1.8400    -3.1787 H       
  61 H61           -5.7465    -1.5446    -1.0304 H       
  62 H62           -7.2973    -0.6924    -0.7500 H       
@<TRIPOS>BOND
   1    1    2 ar
   2    1   11 1
   3    1    6 ar
   4    2    3 ar
   5    2   15 1
   6    3    4 ar
   7    3   35 1
   8    4    5 ar
   9    4    7 1
  10    5    6 ar
  11    5    9 1
  12    6   10 1
  13    7    8 1
  14    7   36 1
  15    7   37 1
  16    8    9 1
  17    8   26 1
  18    8   27 1
  19    9   12 2
  20   13   14 1
  21   13   16 ar
  22   13   20 ar
  23   14   15 1
  24   14   38 1
  25   14   39 1
  26   16   17 ar
  27   16   40 1
  28   17   18 ar
  29   17   41 1
  30   18   19 ar
  31   18   21 1
  32   19   20 ar
  33   19   42 1
  34   20   43 1
  35   21   22 2
  36   21   25 1
  37   22   23 1
  38   23   24 2
  39   24   25 1
  40   25   44 1
  41   26   31 1
  42   26   34 1
  43   26   45 1
  44   27   28 1
  45   27   46 1
  46   27   47 1
  47   28   29 1
  48   28   48 1
  49   28   49 1
  50   29   30 1
  51   29   50 1
  52   29   51 1
  53   30   52 1
  54   30   53 1
  55   30   54 1
  56   31   32 1
  57   31   55 1
  58   31   56 1
  59   32   33 1
  60   32   57 1
  61   32   58 1
  62   33   34 1
  63   33   59 1
  64   33   60 1
  65   34   61 1
  66   34   62 1

#	End of record

