#	Name: ASD05430207
#	Creating user name:	WinNT
#	Creation time:	15. 06. 2019 21:00

#	Modifying user name:	WinNT
#	Modification time:	15. 06. 2019 21:00

#	Program:	/corina/corina34_cracker 3.40 0067  02.08.2006

@<TRIPOS>MOLECULE
ASD05430207
  80   86    0    0    0
SMALL
NO_CHARGES


@<TRIPOS>ATOM
   1 C1             0.3684     0.4698     1.7748 C.ar    
   2 C2             0.4265    -0.8638     1.3643 C.ar    
   3 C3             1.5705    -1.3560     0.7546 C.ar    
   4 C4             2.6652    -0.5400     0.5446 C.ar    
   5 C5             2.6331     0.7955     0.9456 C.ar    
   6 C6             1.4727     1.3066     1.5669 C.ar    
   7 C7             5.3188    -0.2645     1.2690 C.3     
   8 C8             5.0419     1.1526     0.7921 C.2     
   9 C9             3.7967     1.6636     0.7225 C.2     
  10 C10            6.5181    -0.2300     2.2230 C.3     
  11 C11            7.7767     0.2331     1.4815 C.3     
  12 N12            7.5111     1.5086     0.8233 N.pl3   
  13 C13            6.2429     1.9284     0.4107 C.2     
  14 N14           -0.6730    -1.7061     1.5692 N.pl3   
  15 C15           -0.7685    -3.0069     1.2309 C.2     
  16 N16           -1.8939    -1.3651     2.1739 N.2     
  17 C17           -2.6357    -2.4419     2.1618 C.2     
  18 N18           -1.9522    -3.4332     1.5909 N.2     
  19 C19           -4.0357    -2.5464     2.7096 C.3     
  20 C20            8.4328     2.5920     0.4790 C.3     
  21 O21            7.6888     3.3658    -0.4854 O.3     
  22 N22            6.3281     2.9938    -0.3105 N.2     
  23 C23            8.7584     3.4362     1.7128 C.3     
  24 C24            9.7221     4.5588     1.3228 C.3     
  25 C25            9.6927     2.0422    -0.1385 C.ar    
  26 C26           10.3681     1.0050     0.4774 C.ar    
  27 C27           10.1692     2.5717    -1.3233 C.ar    
  28 C28           11.3240     2.0677    -1.8910 C.ar    
  29 C29           12.0041     1.0324    -1.2724 C.ar    
  30 C30           11.5233     0.4997    -0.0882 C.ar    
  31 F31           13.1331     0.5389    -1.8264 F       
  32 S32           10.1082     5.5596     2.7856 S.o2    
  33 O33            8.9215     6.2147     3.2121 O.2     
  34 O34           10.8257     4.7530     3.7096 O.2     
  35 C35            1.1066     2.6191     2.0979 C.2     
  36 N36           -0.1021     2.5269     2.5639 N.2     
  37 O37           -0.5854     1.2121     2.3733 O.3     
  38 C38            6.2228     0.7367     3.3717 C.3     
  39 C39            7.4120     0.7650     4.3339 C.3     
  40 C40            7.6463    -0.6383     4.8970 C.3     
  41 C41            7.9419    -1.6052     3.7486 C.3     
  42 C42            6.7525    -1.6335     2.7870 C.3     
  43 O43            8.7573    -0.6117     5.7953 O.3     
  44 C44            8.6781    -1.5767     6.8463 C.3     
  45 C45           11.2401     6.8014     2.1019 C.3     
  46 F46           10.5872     7.5251     1.0984 F       
  47 F47           11.6442     7.6738     3.1182 F       
  48 F48           12.3617     6.1630     1.5620 F       
  49 H49            1.6063    -2.3888     0.4409 H       
  50 H50            3.5492    -0.9377     0.0684 H       
  51 H51            4.4450    -0.6519     1.7930 H       
  52 H52            5.5488    -0.9003     0.4141 H       
  53 H53            3.6545     2.7114     0.5027 H       
  54 H54            8.5937     0.3543     2.1928 H       
  55 H55            8.0528    -0.5110     0.7342 H       
  56 H56           -0.0024    -3.5947     0.7471 H       
  57 H57           -4.7519    -2.3005     1.9256 H       
  58 H58           -4.2142    -3.5633     3.0589 H       
  59 H59           -4.1536    -1.8508     3.5405 H       
  60 H60            7.8399     3.8677     2.1106 H       
  61 H61            9.2225     2.8064     2.4718 H       
  62 H62           10.6406     4.1273     0.9250 H       
  63 H63            9.2581     5.1886     0.5638 H       
  64 H64            9.9929     0.5897     1.4010 H       
  65 H65            9.6385     3.3792    -1.8057 H       
  66 H66           11.6956     2.4809    -2.8170 H       
  67 H67           12.0532    -0.3076     0.3954 H       
  68 H68            1.7274     3.5028     2.1018 H       
  69 H69            6.0557     1.7365     2.9711 H       
  70 H70            5.3317     0.4056     3.9051 H       
  71 H71            8.3031     1.0959     3.8005 H       
  72 H72            7.2012     1.4541     5.1517 H       
  73 H73            6.7553    -0.9692     5.4305 H       
  74 H74            8.8328    -1.2740     3.2149 H       
  75 H75            8.1091    -2.6050     4.1493 H       
  76 H76            5.8615    -1.9639     3.3210 H       
  77 H77            6.9626    -2.3232     1.9695 H       
  78 H78            9.5579    -1.4922     7.4842 H       
  79 H79            7.7811    -1.3960     7.4387 H       
  80 H80            8.6349    -2.5780     6.4177 H       
@<TRIPOS>BOND
   1    1    2 ar
   2    1    6 ar
   3    1   37 1
   4    2    3 ar
   5    2   14 1
   6    3    4 ar
   7    3   49 1
   8    4    5 ar
   9    4   50 1
  10    5    6 ar
  11    5    9 1
  12    6   35 1
  13    7    8 1
  14    7   10 1
  15    7   51 1
  16    7   52 1
  17    8    9 2
  18    8   13 1
  19    9   53 1
  20   10   11 1
  21   10   38 1
  22   10   42 1
  23   11   12 1
  24   11   54 1
  25   11   55 1
  26   12   13 1
  27   12   20 1
  28   13   22 2
  29   14   15 1
  30   14   16 1
  31   15   18 2
  32   15   56 1
  33   16   17 2
  34   17   18 1
  35   17   19 1
  36   19   57 1
  37   19   58 1
  38   19   59 1
  39   20   21 1
  40   20   23 1
  41   20   25 1
  42   21   22 1
  43   23   24 1
  44   23   60 1
  45   23   61 1
  46   24   32 1
  47   24   62 1
  48   24   63 1
  49   25   26 ar
  50   25   27 ar
  51   26   30 ar
  52   26   64 1
  53   27   28 ar
  54   27   65 1
  55   28   29 ar
  56   28   66 1
  57   29   30 ar
  58   29   31 1
  59   30   67 1
  60   32   33 2
  61   32   34 2
  62   32   45 1
  63   35   36 2
  64   35   68 1
  65   36   37 1
  66   38   39 1
  67   38   69 1
  68   38   70 1
  69   39   40 1
  70   39   71 1
  71   39   72 1
  72   40   41 1
  73   40   43 1
  74   40   73 1
  75   41   42 1
  76   41   74 1
  77   41   75 1
  78   42   76 1
  79   42   77 1
  80   43   44 1
  81   44   78 1
  82   44   79 1
  83   44   80 1
  84   45   46 1
  85   45   47 1
  86   45   48 1

#	End of record

