#	Name: ASD07930687
#	Creating user name:	WinNT
#	Creation time:	15. 06. 2019 21:13

#	Modifying user name:	WinNT
#	Modification time:	15. 06. 2019 21:13

#	Program:	/corina/corina34_cracker 3.40 0067  02.08.2006

@<TRIPOS>MOLECULE
ASD07930687
  43   45    0    0    0
SMALL
NO_CHARGES


@<TRIPOS>ATOM
   1 C1            -0.0888     1.4508     0.2685 C.3     
   2 N2             0.6123    -0.2389    -2.0904 N.2     
   3 N3            -0.9751    -1.7101    -1.2089 N.pl3   
   4 C4            -0.9005    -2.8248    -0.2586 C.3     
   5 C5            -1.1248    -2.2931     1.1637 C.3     
   6 S6             0.1054    -0.9908     1.4873 S.o2    
   7 N7            -0.0395    -0.0085     0.1491 N.am    
   8 C8            -0.1117    -0.6410    -1.0839 C.2     
   9 C9             0.4792    -3.4803    -0.3474 C.3     
  10 O10           -0.3003    -0.1732     2.5765 O.2     
  11 O11            1.4248    -1.5121     1.4069 O.2     
  12 C12           -1.9634    -3.8404    -0.5898 C.2     
  13 C13           -2.8263    -3.6894    -1.6560 C.2     
  14 C14           -3.7146    -4.6913    -1.8083 C.2     
  15 S15           -3.4630    -5.8948    -0.5506 S.3     
  16 C16           -2.1368    -4.9578     0.1245 C.2     
  17 C17           -4.7420    -4.7669    -2.8685 C.ar    
  18 C18           -5.6152    -5.8559    -2.9333 C.ar    
  19 C19           -6.5675    -5.8777    -3.9554 C.ar    
  20 C20           -6.6093    -4.8194    -4.8648 C.ar    
  21 N21           -5.7668    -3.8110    -4.7684 N.ar    
  22 C22           -4.8582    -3.7481    -3.8169 C.ar    
  23 C23           -7.4867    -6.9698    -4.0687 C.1     
  24 Cl24          -1.1988    -5.4112     1.5132 Cl      
  25 C25           -8.2404    -7.8651    -4.1616 C.1     
  26 C26           -9.1853    -8.9878    -4.2781 C.3     
  27 H27            0.9227     1.8539     0.2174 H       
  28 H28           -0.6853     1.8620    -0.5459 H       
  29 H29           -0.5403     1.7223     1.2226 H       
  30 H30            1.2143     0.5143    -1.9845 H       
  31 H31           -1.6276    -1.7263    -1.9264 H       
  32 H32           -2.1295    -1.8785     1.2468 H       
  33 H33           -1.0004    -3.1030     1.8826 H       
  34 H34            1.2469    -2.7453    -0.1057 H       
  35 H35            0.5340    -4.3086     0.3591 H       
  36 H36            0.6395    -3.8541    -1.3586 H       
  37 H37           -2.7926    -2.8353    -2.3162 H       
  38 H38           -5.5554    -6.6587    -2.2134 H       
  39 H39           -7.3420    -4.8275    -5.6582 H       
  40 H40           -4.1874    -2.9027    -3.7756 H       
  41 H41           -9.8430    -8.8220    -5.1314 H       
  42 H42           -8.6314    -9.9156    -4.4211 H       
  43 H43           -9.7813    -9.0570    -3.3681 H       
@<TRIPOS>BOND
   1    1    7 1
   2    1   27 1
   3    1   28 1
   4    1   29 1
   5    2    8 2
   6    2   30 1
   7    3    4 1
   8    3    8 1
   9    3   31 1
  10    4    5 1
  11    4    9 1
  12    4   12 1
  13    5    6 1
  14    5   32 1
  15    5   33 1
  16    6    7 am
  17    6   10 2
  18    6   11 2
  19    7    8 1
  20    9   34 1
  21    9   35 1
  22    9   36 1
  23   12   13 1
  24   12   16 2
  25   13   14 2
  26   13   37 1
  27   14   15 1
  28   14   17 1
  29   15   16 1
  30   16   24 1
  31   17   18 ar
  32   17   22 ar
  33   18   19 ar
  34   18   38 1
  35   19   20 ar
  36   19   23 1
  37   20   21 ar
  38   20   39 1
  39   21   22 ar
  40   22   40 1
  41   23   25 3
  42   25   26 1
  43   26   41 1
  44   26   42 1
  45   26   43 1

#	End of record

