#	Name: ASD01912141
#	Creating user name:	WinNT
#	Creation time:	15. 06. 2019 19:59

#	Modifying user name:	WinNT
#	Modification time:	15. 06. 2019 19:59

#	Program:	/corina/corina34_cracker 3.40 0067  02.08.2006

@<TRIPOS>MOLECULE
ASD01912141
  58   61    0    0    0
SMALL
NO_CHARGES


@<TRIPOS>ATOM
   1 C1            -0.0166     1.3758     0.0096 C.ar    
   2 C2             0.0021    -0.0041     0.0020 C.ar    
   3 C3             1.2190    -0.6821    -0.0132 C.ar    
   4 C4             2.4126     0.0369    -0.0207 C.ar    
   5 C5             2.3848     1.4162    -0.0131 C.ar    
   6 C6             1.1723     2.0867     0.0021 C.ar    
   7 C7             1.2440    -2.1661    -0.0209 C.2     
   8 N8             2.3180    -2.9228     0.0580 N.2     
   9 C9             0.1222    -3.0133    -0.1080 C.2     
  10 C10            0.5644    -4.2895    -0.0840 C.2     
  11 N11            1.9106    -4.2624     0.0175 N.pl3   
  12 C12           -0.2941    -5.5261    -0.1539 C.3     
  13 C13            2.7921    -5.4311     0.0756 C.3     
  14 C14            3.2009    -5.8218    -1.3213 C.2     
  15 N15            4.0167    -6.8772    -1.5143 N.am    
  16 O16            2.7959    -5.1866    -2.2718 O.2     
  17 C17            4.4279    -7.2756    -2.8691 C.3     
  18 C18            4.5242    -7.6573    -0.3754 C.3     
  19 C19            6.0467    -7.7736    -0.5049 C.3     
  20 N20            6.3824    -8.3160    -1.8281 N.3     
  21 C21            5.9544    -7.4077    -2.8953 C.3     
  22 C22            7.7361    -8.5876    -1.9240 C.ar    
  23 N23            8.2176    -9.0847    -3.0538 N.ar    
  24 N24            8.5207    -8.3391    -0.8857 N.ar    
  25 C25            9.8188    -8.5867    -0.9445 C.ar    
  26 C26           10.3548    -9.1119    -2.1098 C.ar    
  27 C27            9.5064    -9.3550    -3.1786 C.ar    
  28 F28            1.1495     3.4374     0.0091 F       
  29 C29           -0.5834    -5.8640    -1.6179 C.3     
  30 C30            3.6751     2.1949    -0.0207 C.3     
  31 C31           -1.4550    -7.1195    -1.6889 C.3     
  32 H32           -0.9596     1.9023     0.0169 H       
  33 H33           -0.9253    -0.5575     0.0082 H       
  34 H34            3.3582    -0.4849    -0.0322 H       
  35 H35           -0.9084    -2.6985    -0.1803 H       
  36 H36            0.2299    -6.3592     0.3146 H       
  37 H37           -1.2330    -5.3467     0.3699 H       
  38 H38            3.6799    -5.1879     0.6594 H       
  39 H39            2.2644    -6.2611     0.5453 H       
  40 H40            3.9731    -8.2330    -3.1231 H       
  41 H41            4.1137    -6.5163    -3.5853 H       
  42 H42            4.2736    -7.1503     0.5564 H       
  43 H43            4.0788    -8.6521    -0.3855 H       
  44 H44            6.4978    -6.7879    -0.3907 H       
  45 H45            6.4276    -8.4402     0.2688 H       
  46 H46            6.2640    -7.8089    -3.8604 H       
  47 H47            6.4102    -6.4291    -2.7446 H       
  48 H48           10.4533    -8.3817    -0.0949 H       
  49 H49           11.4113    -9.3231    -2.1849 H       
  50 H50            9.8923    -9.7638    -4.1007 H       
  51 H51           -1.1074    -5.0310    -2.0864 H       
  52 H52            0.3555    -6.0435    -2.1417 H       
  53 H53            3.9767     2.3881    -1.0501 H       
  54 H54            3.5310     3.1418     0.4996 H       
  55 H55            4.4506     1.6179     0.4830 H       
  56 H56           -0.9310    -7.9526    -1.2203 H       
  57 H57           -2.3939    -6.9401    -1.1650 H       
  58 H58           -1.6610    -7.3602    -2.7318 H       
@<TRIPOS>BOND
   1    1    2 ar
   2    1    6 ar
   3    1   32 1
   4    2    3 ar
   5    2   33 1
   6    3    4 ar
   7    3    7 1
   8    4    5 ar
   9    4   34 1
  10    5    6 ar
  11    5   30 1
  12    6   28 1
  13    7    8 2
  14    7    9 1
  15    8   11 1
  16    9   10 2
  17    9   35 1
  18   10   11 1
  19   10   12 1
  20   11   13 1
  21   12   29 1
  22   12   36 1
  23   12   37 1
  24   13   14 1
  25   13   38 1
  26   13   39 1
  27   14   15 am
  28   14   16 2
  29   15   17 1
  30   15   18 1
  31   17   21 1
  32   17   40 1
  33   17   41 1
  34   18   19 1
  35   18   42 1
  36   18   43 1
  37   19   20 1
  38   19   44 1
  39   19   45 1
  40   20   21 1
  41   20   22 1
  42   21   46 1
  43   21   47 1
  44   22   23 ar
  45   22   24 ar
  46   23   27 ar
  47   24   25 ar
  48   25   26 ar
  49   25   48 1
  50   26   27 ar
  51   26   49 1
  52   27   50 1
  53   29   31 1
  54   29   51 1
  55   29   52 1
  56   30   53 1
  57   30   54 1
  58   30   55 1
  59   31   56 1
  60   31   57 1
  61   31   58 1

#	End of record

