#	Name: ASD03080094
#	Creating user name:	WinNT
#	Creation time:	15. 06. 2019 20:26

#	Modifying user name:	WinNT
#	Modification time:	15. 06. 2019 20:26

#	Program:	/corina/corina34_cracker 3.40 0067  02.08.2006

@<TRIPOS>MOLECULE
ASD03080094
  33   33    0    0    0
SMALL
NO_CHARGES


@<TRIPOS>ATOM
   1 C1            -0.0083     1.4570     0.2067 C.3     
   2 N2            -0.0099     0.0119    -0.0606 N.3     
   3 C3             0.5353    -0.2745    -1.3949 C.3     
   4 C4             1.9683     0.2562    -1.4822 C.3     
   5 N5             1.9699     1.7012    -1.2149 N.3     
   6 C6             1.4246     1.9876     0.1194 C.3     
   7 C7            -1.3592    -0.5495     0.0884 C.3     
   8 C8            -1.3402    -2.0309    -0.2939 C.3     
   9 O9            -0.4841    -2.7429     0.6017 O.3     
  10 C10            3.3191     2.2626    -1.3638 C.3     
  11 C11            3.2430     3.7903    -1.3257 C.3     
  12 S12            4.9091     4.4836    -1.5096 S.o2    
  13 O13            4.7015     5.9904    -1.4563 O.3     
  14 O14            5.6976     4.1977    -0.3626 O.2     
  15 O15            5.4069     4.2445    -2.8189 O.2     
  16 H16           -0.6295     1.9641    -0.5316 H       
  17 H17           -0.4046     1.6426     1.2050 H       
  18 H18            0.5354    -1.3513    -1.5642 H       
  19 H19           -0.0797     0.2129    -2.1514 H       
  20 H20            2.5895    -0.2509    -0.7439 H       
  21 H21            2.3646     0.0706    -2.4805 H       
  22 H22            1.4246     3.0644     0.2888 H       
  23 H23            2.0396     1.5002     0.8759 H       
  24 H24           -1.6837    -0.4455     1.1237 H       
  25 H25           -2.0493    -0.0147    -0.5642 H       
  26 H26           -2.3503    -2.4356    -0.2298 H       
  27 H27           -0.9697    -2.1384    -1.3133 H       
  28 H28           -0.4239    -3.6905     0.4184 H       
  29 H29            3.9514     1.9099    -0.5490 H       
  30 H30            3.7423     1.9436    -2.3163 H       
  31 H31            2.6107     4.1430    -2.1405 H       
  32 H32            2.8198     4.1093    -0.3731 H       
  33 H33            5.5168     6.5031    -1.5430 H       
@<TRIPOS>BOND
   1    1    2 1
   2    1    6 1
   3    1   16 1
   4    1   17 1
   5    2    3 1
   6    2    7 1
   7    3    4 1
   8    3   18 1
   9    3   19 1
  10    4    5 1
  11    4   20 1
  12    4   21 1
  13    5    6 1
  14    5   10 1
  15    6   22 1
  16    6   23 1
  17    7    8 1
  18    7   24 1
  19    7   25 1
  20    8    9 1
  21    8   26 1
  22    8   27 1
  23    9   28 1
  24   10   11 1
  25   10   29 1
  26   10   30 1
  27   11   12 1
  28   11   31 1
  29   11   32 1
  30   12   13 1
  31   12   14 2
  32   12   15 2
  33   13   33 1

#	End of record

