#	Name: ASD02030740
#	Creating user name:	WinNT
#	Creation time:	15. 06. 2019 20:16

#	Modifying user name:	WinNT
#	Modification time:	15. 06. 2019 20:16

#	Program:	/corina/corina34_cracker 3.40 0067  02.08.2006

@<TRIPOS>MOLECULE
ASD02030740
  42   44    0    0    0
SMALL
NO_CHARGES


@<TRIPOS>ATOM
   1 N1            -0.0169     1.3957     0.0097 N.2     
   2 N2             0.0021    -0.0041     0.0020 N.am    
   3 C3             1.1646    -0.6797    -0.0123 C.2     
   4 N4             2.3448    -0.0325    -0.0200 N.am    
   5 C5             2.3757     1.3164    -0.0131 C.2     
   6 C6             1.1074     2.0610     0.0026 C.2     
   7 O7             1.1494    -1.8958    -0.0178 O.2     
   8 O8             3.4386     1.9089    -0.0192 O.2     
   9 O9             1.1051     3.4197     0.0094 O.3     
  10 C10           -1.2627    -0.7434     0.0101 C.3     
  11 C11           -1.6892    -1.0085     1.4554 C.3     
  12 N12           -2.9574    -1.7498     1.4635 N.3     
  13 C13           -3.2789    -2.2285     2.8152 C.3     
  14 C14           -4.6418    -2.9247     2.7962 C.3     
  15 N15           -4.6059    -4.0402     1.8402 N.3     
  16 C16           -4.2843    -3.5615     0.4885 C.3     
  17 C17           -2.9214    -2.8654     0.5075 C.3     
  18 C18           -5.8132    -4.7459     1.8479 C.ar    
  19 C19           -6.5712    -4.8436     0.6855 C.ar    
  20 C20           -7.7640    -5.5422     0.6976 C.ar    
  21 C21           -8.2033    -6.1426     1.8639 C.ar    
  22 C22           -7.4517    -6.0468     3.0200 C.ar    
  23 C23           -6.2552    -5.3553     3.0139 C.ar    
  24 F24           -6.1425    -4.2565    -0.4532 F       
  25 H25            3.1737    -0.5362    -0.0303 H       
  26 H26            0.2211     3.8114     0.0197 H       
  27 H27           -2.0303    -0.1556    -0.4933 H       
  28 H28           -1.1322    -1.6923    -0.5101 H       
  29 H29           -0.9215    -1.5962     1.9587 H       
  30 H30           -1.8197    -0.0596     1.9756 H       
  31 H31           -2.5149    -2.9337     3.1426 H       
  32 H32           -3.3121    -1.3829     3.5021 H       
  33 H33           -4.8693    -3.3060     3.7916 H       
  34 H34           -5.4099    -2.2123     2.4950 H       
  35 H35           -4.2512    -4.4071    -0.1985 H       
  36 H36           -5.0483    -2.8564     0.1611 H       
  37 H37           -2.6940    -2.4840    -0.4879 H       
  38 H38           -2.1534    -3.5778     0.8087 H       
  39 H39           -8.3536    -5.6189    -0.2040 H       
  40 H40           -9.1359    -6.6872     1.8712 H       
  41 H41           -7.7980    -6.5169     3.9286 H       
  42 H42           -5.6669    -5.2851     3.9169 H       
@<TRIPOS>BOND
   1    1    2 1
   2    1    6 2
   3    2    3 am
   4    2   10 1
   5    3    4 am
   6    3    7 2
   7    4    5 am
   8    4   25 1
   9    5    6 1
  10    5    8 2
  11    6    9 1
  12    9   26 1
  13   10   11 1
  14   10   27 1
  15   10   28 1
  16   11   12 1
  17   11   29 1
  18   11   30 1
  19   12   13 1
  20   12   17 1
  21   13   14 1
  22   13   31 1
  23   13   32 1
  24   14   15 1
  25   14   33 1
  26   14   34 1
  27   15   16 1
  28   15   18 1
  29   16   17 1
  30   16   35 1
  31   16   36 1
  32   17   37 1
  33   17   38 1
  34   18   19 ar
  35   18   23 ar
  36   19   20 ar
  37   19   24 1
  38   20   21 ar
  39   20   39 1
  40   21   22 ar
  41   21   40 1
  42   22   23 ar
  43   22   41 1
  44   23   42 1

#	End of record

