#	Name: ASD03091769
#	Creating user name:	WinNT
#	Creation time:	15. 06. 2019 20:31

#	Modifying user name:	WinNT
#	Modification time:	15. 06. 2019 20:31

#	Program:	/corina/corina34_cracker 3.40 0067  02.08.2006

@<TRIPOS>MOLECULE
ASD03091769
  35   37    0    0    0
SMALL
NO_CHARGES


@<TRIPOS>ATOM
   1 C1            -0.0043     1.6091     0.0115 C.3     
   2 C2            -0.0255     0.0792     0.0113 C.3     
   3 N3             0.6673    -0.4216     1.2053 N.3     
   4 C4            -0.0060     0.0201     2.4333 C.3     
   5 C5             0.0153     1.5482     2.5077 C.3     
   6 C6             1.4684     2.0346     2.5244 C.3     
   7 N7             2.0996     1.6803     1.2459 N.am    
   8 C8             1.4487     2.0959    -0.0040 C.3     
   9 C9             3.2546     0.9861     1.2201 C.2     
  10 O10            3.8199     0.7073     2.2602 O.2     
  11 C11            3.8325     0.5649    -0.0685 C.2     
  12 C12            4.2292    -0.7949    -0.4626 C.2     
  13 C13           -0.6930     2.1254     1.2784 C.3     
  14 C14            4.1056     1.3541    -1.1472 C.2     
  15 O15            4.6213     0.5863    -2.1119 O.3     
  16 C16            4.6992    -0.6936    -1.7152 C.2     
  17 C17            4.1286    -2.0467     0.3704 C.3     
  18 H18           -0.5237     1.9818    -0.8713 H       
  19 H19           -1.0582    -0.2696     0.0176 H       
  20 H20            0.4772    -0.2909    -0.8823 H       
  21 H21            0.7507    -1.4268     1.1801 H       
  22 H22           -1.0386    -0.3288     2.4268 H       
  23 H23            0.5110    -0.3929     3.2995 H       
  24 H24           -0.4904     1.8767     3.4157 H       
  25 H25            1.4902     3.1165     2.6553 H       
  26 H26            2.0052     1.5545     3.3426 H       
  27 H27            1.9725     1.6560    -0.8526 H       
  28 H28            1.4692     3.1829    -0.0827 H       
  29 H29           -0.6389     3.2137     1.3046 H       
  30 H30           -1.7369     1.8117     1.2790 H       
  31 H31            3.9338     2.4185    -1.2109 H       
  32 H32            5.0800    -1.5112    -2.3093 H       
  33 H33            3.1598    -2.5175     0.2032 H       
  34 H34            4.9222    -2.7375     0.0855 H       
  35 H35            4.2310    -1.7907     1.4249 H       
@<TRIPOS>BOND
   1    1    2 1
   2    1    8 1
   3    1   13 1
   4    1   18 1
   5    2    3 1
   6    2   19 1
   7    2   20 1
   8    3    4 1
   9    3   21 1
  10    4    5 1
  11    4   22 1
  12    4   23 1
  13    5    6 1
  14    5   13 1
  15    5   24 1
  16    6    7 1
  17    6   25 1
  18    6   26 1
  19    7    8 1
  20    7    9 am
  21    8   27 1
  22    8   28 1
  23    9   10 2
  24    9   11 1
  25   11   12 1
  26   11   14 2
  27   12   17 1
  28   12   16 2
  29   13   29 1
  30   13   30 1
  31   14   15 1
  32   14   31 1
  33   15   16 1
  34   16   32 1
  35   17   33 1
  36   17   34 1
  37   17   35 1

#	End of record

