#	Name: ASD02590041
#	Creating user name:	WinNT
#	Creation time:	15. 06. 2019 20:25

#	Modifying user name:	WinNT
#	Modification time:	15. 06. 2019 20:25

#	Program:	/corina/corina34_cracker 3.40 0067  02.08.2006

@<TRIPOS>MOLECULE
ASD02590041
  31   33    0    0    0
SMALL
NO_CHARGES


@<TRIPOS>ATOM
   1 C1            -0.0215     1.4034    -0.1535 C.ar    
   2 C2             0.0006     0.0113    -0.1448 C.ar    
   3 C3            -1.1760    -0.7053    -0.1039 C.ar    
   4 C4            -2.3924    -0.0379    -0.0711 C.ar    
   5 C5            -2.4236     1.3685    -0.0796 C.ar    
   6 C6            -1.2218     2.0836    -0.1155 C.ar    
   7 N7            -3.7102    -0.4515    -0.0279 N.pl3   
   8 C8            -4.4873     0.6747    -0.0116 C.2     
   9 N9            -3.7255     1.7400    -0.0421 N.2     
  10 C10           -5.9665     0.6874     0.0332 C.ar    
  11 C11           -6.6434     1.8971     0.1808 C.ar    
  12 C12           -8.0276     1.8926     0.2211 C.ar    
  13 C13           -8.6893     0.6784     0.1124 C.ar    
  14 C14           -7.9538    -0.4852    -0.0321 C.ar    
  15 N15           -6.6384    -0.4530    -0.0729 N.ar    
  16 C16           -5.8797     3.1911     0.2955 C.3     
  17 O17            1.1471     2.0973    -0.1940 O.3     
  18 C18            2.3544     1.3334    -0.2259 C.3     
  19 F19            2.3611     0.5191    -1.3634 F       
  20 F20            3.4529     2.1988    -0.2654 F       
  21 F21            2.4311     0.5344     0.9200 F       
  22 H22            0.9459    -0.5104    -0.1706 H       
  23 H23           -1.1514    -1.7850    -0.0978 H       
  24 H24           -1.2334     3.1635    -0.1223 H       
  25 H25           -4.0255    -1.3687    -0.0121 H       
  26 H26           -8.5795     2.8139     0.3349 H       
  27 H27           -9.7683     0.6412     0.1405 H       
  28 H28           -8.4662    -1.4321    -0.1166 H       
  29 H29           -5.6265     3.5531    -0.7010 H       
  30 H30           -6.4950     3.9322     0.8057 H       
  31 H31           -4.9652     3.0241     0.8646 H       
@<TRIPOS>BOND
   1    1    2 ar
   2    1   17 1
   3    1    6 ar
   4    2    3 ar
   5    2   22 1
   6    3    4 ar
   7    3   23 1
   8    4    5 ar
   9    4    7 1
  10    5    6 ar
  11    5    9 1
  12    6   24 1
  13    7    8 1
  14    7   25 1
  15    8    9 2
  16    8   10 1
  17   10   11 ar
  18   10   15 ar
  19   11   12 ar
  20   11   16 1
  21   12   13 ar
  22   12   26 1
  23   13   14 ar
  24   13   27 1
  25   14   15 ar
  26   14   28 1
  27   16   29 1
  28   16   30 1
  29   16   31 1
  30   17   18 1
  31   18   19 1
  32   18   20 1
  33   18   21 1

#	End of record

