#	Name: ASD01120167
#	Creating user name:	WinNT
#	Creation time:	15. 06. 2019 18:59

#	Modifying user name:	WinNT
#	Modification time:	15. 06. 2019 18:59

#	Program:	/corina/corina34_cracker 3.40 0067  02.08.2006

@<TRIPOS>MOLECULE
ASD01120167
  28   29    0    0    0
SMALL
NO_CHARGES


@<TRIPOS>ATOM
   1 N1            -0.0167     1.3785     0.0096 N.pl3   
   2 C2             0.0021    -0.0041     0.0020 C.2     
   3 C3             1.2930    -0.4314    -0.0126 C.2     
   4 C4             2.1257     0.7125    -0.0144 C.ar    
   5 C5             3.5169     0.8903    -0.0271 C.ar    
   6 C6             4.0402     2.1514    -0.0257 C.ar    
   7 C7             3.2061     3.2636    -0.0118 C.ar    
   8 C8             1.8361     3.1139     0.0013 C.ar    
   9 C9             1.2789     1.8383    -0.0003 C.ar    
  10 C10           -1.1822    -0.8718     0.0091 C.2     
  11 O11           -1.0503    -2.0805     0.0017 O.2     
  12 O12           -2.4163    -0.3283     0.0237 O.3     
  13 Cl13           3.8969     4.8562    -0.0104 Cl      
  14 Cl14           4.5705    -0.4893    -0.0439 Cl      
  15 C15            1.7539    -1.8661    -0.0242 C.3     
  16 C16            1.8966    -2.3442    -1.4706 C.3     
  17 C17            2.3576    -3.7789    -1.4823 C.2     
  18 O18            2.5521    -4.3595    -0.4406 O.2     
  19 O19            2.5521    -4.4119    -2.6498 O.3     
  20 H20           -0.8128     1.9326     0.0165 H       
  21 H21            5.1117     2.2861    -0.0352 H       
  22 H22            1.1965     3.9840     0.0128 H       
  23 H23           -3.1653    -0.9399     0.0279 H       
  24 H24            2.7171    -1.9424     0.4803 H       
  25 H25            1.0225    -2.4870     0.4932 H       
  26 H26            0.9334    -2.2680    -1.9752 H       
  27 H27            2.6280    -1.7234    -1.9880 H       
  28 H28            2.8480    -5.3315    -2.6067 H       
@<TRIPOS>BOND
   1    1    2 1
   2    1    9 1
   3    1   20 1
   4    2    3 2
   5    2   10 1
   6    3    4 1
   7    3   15 1
   8    4    5 ar
   9    4    9 ar
  10    5    6 ar
  11    5   14 1
  12    6    7 ar
  13    6   21 1
  14    7    8 ar
  15    7   13 1
  16    8    9 ar
  17    8   22 1
  18   10   11 2
  19   10   12 1
  20   12   23 1
  21   15   16 1
  22   15   24 1
  23   15   25 1
  24   16   17 1
  25   16   26 1
  26   16   27 1
  27   17   18 2
  28   17   19 1
  29   19   28 1

#	End of record

