#	Name: ASD01230198
#	Creating user name:	WinNT
#	Creation time:	15. 06. 2019 19:12

#	Modifying user name:	WinNT
#	Modification time:	15. 06. 2019 19:12

#	Program:	/corina/corina34_cracker 3.40 0067  02.08.2006

@<TRIPOS>MOLECULE
ASD01230198
  45   48    0    0    0
SMALL
NO_CHARGES


@<TRIPOS>ATOM
   1 S1             0.9689     0.9461     0.0986 S.o2    
   2 N2             0.6243    -0.6585    -0.1117 N.am    
   3 C3             1.3877    -1.4503    -0.8252 C.2     
   4 N4             2.5314    -1.0778    -1.4723 N.pl3   
   5 C5             3.0379     0.2965    -1.5133 C.3     
   6 C6             2.7661     1.0104    -0.1860 C.3     
   7 C7             0.9492    -2.8591    -0.9185 C.2     
   8 C8             1.7235    -3.7577    -1.6197 C.2     
   9 C9             2.9042    -3.3084    -2.2269 C.2     
  10 C10            3.2741    -2.0191    -2.1408 C.2     
  11 C11           -0.3053    -3.2989    -0.2665 C.ar    
  12 C12           -0.2631    -4.2150     0.7850 C.ar    
  13 C13           -1.4335    -4.6218     1.3900 C.ar    
  14 C14           -2.6529    -4.1213     0.9538 C.ar    
  15 C15           -2.6988    -3.2095    -0.0922 C.ar    
  16 C16           -1.5322    -2.7937    -0.6983 C.ar    
  17 O17           -3.8044    -4.5252     1.5520 O.3     
  18 C18           -4.8139    -6.1925     4.7624 C.3     
  19 C19           -4.9216    -5.2257     3.5803 C.3     
  20 C20           -3.6786    -5.3709     2.6970 C.3     
  21 C21           -3.5541    -6.8294     2.2457 C.3     
  22 C22           -3.4992    -7.7343     3.4793 C.3     
  23 O23           -4.6695    -7.5272     4.2728 O.3     
  24 O24            0.2684     1.6026    -0.9490 O.2     
  25 O25            0.6649     1.2012     1.4631 O.2     
  26 H26            4.1120     0.2783    -1.6983 H       
  27 H27            2.5440     0.8377    -2.3203 H       
  28 H28            3.0955     2.0475    -0.2478 H       
  29 H29            3.2888     0.5011     0.6236 H       
  30 H30            1.4253    -4.7927    -1.6999 H       
  31 H31            3.5241    -4.0063    -2.7702 H       
  32 H32            4.1933    -1.7111    -2.6169 H       
  33 H33            0.6850    -4.6053     1.1244 H       
  34 H34           -1.4016    -5.3309     2.2040 H       
  35 H35           -3.6492    -2.8224    -0.4288 H       
  36 H36           -1.5684    -2.0813    -1.5092 H       
  37 H37           -3.9457    -5.9314     5.3676 H       
  38 H38           -5.7154    -6.1241     5.3712 H       
  39 H39           -5.8122    -5.4608     2.9974 H       
  40 H40           -4.9874    -4.2028     3.9511 H       
  41 H41           -2.7926    -5.0866     3.2647 H       
  42 H42           -4.4170    -7.0969     1.6358 H       
  43 H43           -2.6419    -6.9534     1.6620 H       
  44 H44           -3.4536    -8.7766     3.1638 H       
  45 H45           -2.6138    -7.4933     4.0677 H       
@<TRIPOS>BOND
   1    1    2 am
   2    1    6 1
   3    1   24 2
   4    1   25 2
   5    2    3 2
   6    3    4 1
   7    3    7 1
   8    4    5 1
   9    4   10 1
  10    5    6 1
  11    5   26 1
  12    5   27 1
  13    6   28 1
  14    6   29 1
  15    7    8 2
  16    7   11 1
  17    8    9 1
  18    8   30 1
  19    9   10 2
  20    9   31 1
  21   10   32 1
  22   11   12 ar
  23   11   16 ar
  24   12   13 ar
  25   12   33 1
  26   13   14 ar
  27   13   34 1
  28   14   15 ar
  29   14   17 1
  30   15   16 ar
  31   15   35 1
  32   16   36 1
  33   17   20 1
  34   18   19 1
  35   18   23 1
  36   18   37 1
  37   18   38 1
  38   19   20 1
  39   19   39 1
  40   19   40 1
  41   20   21 1
  42   20   41 1
  43   21   22 1
  44   21   42 1
  45   21   43 1
  46   22   23 1
  47   22   44 1
  48   22   45 1

#	End of record

