#	Name: ASD01941038
#	Creating user name:	WinNT
#	Creation time:	15. 06. 2019 20:13

#	Modifying user name:	WinNT
#	Modification time:	15. 06. 2019 20:13

#	Program:	/corina/corina34_cracker 3.40 0067  02.08.2006

@<TRIPOS>MOLECULE
ASD01941038
  35   37    0    0    0
SMALL
NO_CHARGES


@<TRIPOS>ATOM
   1 N1            -0.0592     1.9502     1.5623 N.am    
   2 C2             0.1373     0.6155     1.6727 C.2     
   3 N3            -0.7737    -0.2579     1.3397 N.2     
   4 C4            -1.9661     0.1275     0.8652 C.2     
   5 C5            -2.2337     1.4969     0.7263 C.2     
   6 C6            -1.2350     2.4312     1.0975 C.2     
   7 N7            -2.9194    -0.7873     0.5157 N.am    
   8 C8            -4.1161    -0.4068     0.0382 C.2     
   9 C9            -4.4512     0.9399    -0.1271 C.2     
  10 C10           -3.5329     1.9222     0.2092 C.2     
  11 C11           -2.6295    -2.2156     0.6648 C.3     
  12 O12           -4.9340    -1.2618    -0.2604 O.2     
  13 O13           -1.4262     3.6299     0.9933 O.2     
  14 N14           -3.8349     3.2605     0.0576 N.pl3   
  15 C15           -3.1320     4.0354    -0.8716 C.ar    
  16 C16           -2.2255     3.4349    -1.7341 C.ar    
  17 C17           -1.5327     4.2024    -2.6508 C.ar    
  18 C18           -1.7407     5.5684    -2.7099 C.ar    
  19 C19           -2.6431     6.1718    -1.8519 C.ar    
  20 C20           -3.3445     5.4088    -0.9369 C.ar    
  21 F21           -4.2255     5.9977    -0.0989 F       
  22 I22           -0.6867     6.7267    -4.1015 I       
  23 C23            1.0043     2.8785     1.9539 C.3     
  24 H24            1.0844     0.2596     2.0504 H       
  25 H25           -5.4215     1.2140    -0.5142 H       
  26 H26           -2.9315    -2.5458     1.6587 H       
  27 H27           -3.1808    -2.7787    -0.0883 H       
  28 H28           -1.5606    -2.3849     0.5348 H       
  29 H29           -4.5343     3.6638     0.5952 H       
  30 H30           -2.0614     2.3684    -1.6887 H       
  31 H31           -0.8273     3.7350    -3.3218 H       
  32 H32           -2.8029     7.2388    -1.9000 H       
  33 H33            1.8681     2.3140     2.3051 H       
  34 H34            1.2915     3.4851     1.0950 H       
  35 H35            0.6447     3.5269     2.7528 H       
@<TRIPOS>BOND
   1    1    2 1
   2    1   23 1
   3    1    6 am
   4    2    3 2
   5    2   24 1
   6    3    4 1
   7    4    5 2
   8    4    7 1
   9    5    6 1
  10    5   10 1
  11    6   13 2
  12    7    8 am
  13    7   11 1
  14    8    9 1
  15    8   12 2
  16    9   10 2
  17    9   25 1
  18   10   14 1
  19   11   26 1
  20   11   27 1
  21   11   28 1
  22   14   15 1
  23   14   29 1
  24   15   16 ar
  25   15   20 ar
  26   16   17 ar
  27   16   30 1
  28   17   18 ar
  29   17   31 1
  30   18   19 ar
  31   18   22 1
  32   19   20 ar
  33   19   32 1
  34   20   21 1
  35   23   33 1
  36   23   34 1
  37   23   35 1

#	End of record

