#	Name: ASD02039480
#	Creating user name:	WinNT
#	Creation time:	15. 06. 2019 20:18

#	Modifying user name:	WinNT
#	Modification time:	15. 06. 2019 20:18

#	Program:	/corina/corina34_cracker 3.40 0067  02.08.2006

@<TRIPOS>MOLECULE
ASD02039480
  48   51    0    0    0
SMALL
NO_CHARGES


@<TRIPOS>ATOM
   1 C1             0.1517     1.1840     0.0758 C.ar    
   2 C2             0.4339    -0.1696     0.1918 C.ar    
   3 C3             1.2629     2.2002     0.0148 C.3     
   4 N4             1.7336     2.3267    -1.3668 N.am    
   5 C5             1.2449     3.3017    -2.1586 C.2     
   6 C6             0.1659     4.1770    -1.6686 C.2     
   7 C7            -0.4900     5.1303    -2.3912 C.2     
   8 N8            -0.3610     4.1778    -0.4174 N.2     
   9 C9            -1.2929     5.0844    -0.3537 C.2     
  10 N10           -1.3991     5.6953    -1.5624 N.pl3   
  11 O11            1.6947     3.4590    -3.2776 O.2     
  12 C12           -2.3300     6.7727    -1.9070 C.3     
  13 C13            2.7355     1.3934    -1.8876 C.3     
  14 C14           -0.6078    -1.0774     0.2454 C.ar    
  15 N15           -1.8605    -0.6736     0.1874 N.ar    
  16 C16           -2.1727     0.6113     0.0764 C.ar    
  17 C17           -1.1733     1.5797     0.0116 C.ar    
  18 C18           -3.5973     1.0193     0.0142 C.ar    
  19 C19           -4.6033     0.0563     0.0720 C.ar    
  20 C20           -5.9271     0.4403     0.0137 C.ar    
  21 C21           -6.2572     1.7811    -0.1022 C.ar    
  22 C22           -5.2603     2.7418    -0.1601 C.ar    
  23 C23           -3.9341     2.3673    -0.0967 C.ar    
  24 F24           -7.5548     2.1527    -0.1594 F       
  25 C25            2.3139     0.7040    -3.1960 C.3     
  26 C26            3.7667     0.8840    -3.6670 C.3     
  27 C27            3.8502     2.0754    -2.6983 C.3     
  28 F28            4.6047    -0.1809    -3.3192 F       
  29 F29            3.8783     1.2476    -5.0133 F       
  30 H30            1.4575    -0.5109     0.2394 H       
  31 H31            0.8927     3.1647     0.3623 H       
  32 H32            2.0866     1.8764     0.6511 H       
  33 H33           -0.3168     5.3856    -3.4262 H       
  34 H34           -1.8877     5.3121     0.5185 H       
  35 H35           -1.8630     7.7359    -1.7017 H       
  36 H36           -2.5829     6.7098    -2.9654 H       
  37 H37           -3.2369     6.6741    -1.3103 H       
  38 H38            3.1052     0.7028    -1.1297 H       
  39 H39           -0.3915    -2.1316     0.3356 H       
  40 H40           -1.4288     2.6251    -0.0787 H       
  41 H41           -4.3469    -0.9890     0.1620 H       
  42 H42           -6.7072    -0.3052     0.0582 H       
  43 H43           -5.5221     3.7856    -0.2508 H       
  44 H44           -3.1577     3.1167    -0.1415 H       
  45 H45            2.0230    -0.3384    -3.0662 H       
  46 H46            1.5920     1.2766    -3.7783 H       
  47 H47            3.5483     3.0230    -3.1445 H       
  48 H48            4.7996     2.1402    -2.1667 H       
@<TRIPOS>BOND
   1    1    2 ar
   2    1    3 1
   3    1   17 ar
   4    2   14 ar
   5    2   30 1
   6    3    4 1
   7    3   31 1
   8    3   32 1
   9    4    5 am
  10    4   13 1
  11    5    6 1
  12    5   11 2
  13    6    7 2
  14    6    8 1
  15    7   10 1
  16    7   33 1
  17    8    9 2
  18    9   10 1
  19    9   34 1
  20   10   12 1
  21   12   35 1
  22   12   36 1
  23   12   37 1
  24   13   25 1
  25   13   27 1
  26   13   38 1
  27   14   15 ar
  28   14   39 1
  29   15   16 ar
  30   16   17 ar
  31   16   18 1
  32   17   40 1
  33   18   19 ar
  34   18   23 ar
  35   19   20 ar
  36   19   41 1
  37   20   21 ar
  38   20   42 1
  39   21   22 ar
  40   21   24 1
  41   22   23 ar
  42   22   43 1
  43   23   44 1
  44   25   26 1
  45   25   45 1
  46   25   46 1
  47   26   27 1
  48   26   28 1
  49   26   29 1
  50   27   47 1
  51   27   48 1

#	End of record

