#	Name: ASD06350006
#	Creating user name:	WinNT
#	Creation time:	15. 06. 2019 21:06

#	Modifying user name:	WinNT
#	Modification time:	15. 06. 2019 21:06

#	Program:	/corina/corina34_cracker 3.40 0067  02.08.2006

@<TRIPOS>MOLECULE
ASD06350006
  28   29    0    0    0
SMALL
NO_CHARGES


@<TRIPOS>ATOM
   1 C1            -0.2421     1.0549     2.0522 C.3     
   2 O2            -0.1660    -0.2983     1.5313 O.3     
   3 C3            -1.3046    -0.8317     1.0446 C.2     
   4 O4            -2.3329    -0.1832     1.0555 O.2     
   5 C5            -1.3027    -2.1967     0.5012 C.2     
   6 C6            -2.4735    -2.7604    -0.0053 C.2     
   7 C7            -2.4331    -4.0582    -0.5132 C.2     
   8 C8            -1.2679    -4.7554    -0.5105 C.2     
   9 N9            -0.1260    -4.2138    -0.0199 N.am    
  10 C10           -0.1084    -2.9624     0.4770 C.2     
  11 O11            0.9280    -2.4924     0.9134 O.2     
  12 C12            1.0554    -4.9661    -0.0347 C.ar    
  13 C13            1.3789    -5.7733     1.0476 C.ar    
  14 C14            2.5444    -6.5149     1.0322 C.ar    
  15 C15            3.3905    -6.4543    -0.0614 C.ar    
  16 C16            3.0703    -5.6483    -1.1442 C.ar    
  17 C17            1.9016    -4.9097    -1.1345 C.ar    
  18 F18            3.8977    -5.5896    -2.2106 F       
  19 F19            4.5297    -7.1804    -0.0743 F       
  20 H20            0.7403     1.3619     2.4110 H       
  21 H21           -0.5676     1.7309     1.2615 H       
  22 H22           -0.9560     1.0879     2.8751 H       
  23 H23           -3.3971    -2.2006    -0.0037 H       
  24 H24           -3.3306    -4.5101    -0.9093 H       
  25 H25           -1.2505    -5.7601    -0.9063 H       
  26 H26            0.7197    -5.8212     1.9017 H       
  27 H27            2.7957    -7.1424     1.8745 H       
  28 H28            1.6516    -4.2823    -1.9773 H       
@<TRIPOS>BOND
   1    1    2 1
   2    1   20 1
   3    1   21 1
   4    1   22 1
   5    2    3 1
   6    3    4 2
   7    3    5 1
   8    5    6 2
   9    5   10 1
  10    6    7 1
  11    6   23 1
  12    7    8 2
  13    7   24 1
  14    8    9 1
  15    8   25 1
  16    9   10 am
  17    9   12 1
  18   10   11 2
  19   12   13 ar
  20   12   17 ar
  21   13   14 ar
  22   13   26 1
  23   14   15 ar
  24   14   27 1
  25   15   16 ar
  26   15   19 1
  27   16   17 ar
  28   16   18 1
  29   17   28 1

#	End of record

