#	Name: ASD00192042
#	Creating user name:	WinNT
#	Creation time:	15. 06. 2019 18:33

#	Modifying user name:	WinNT
#	Modification time:	15. 06. 2019 18:33

#	Program:	/corina/corina34_cracker 3.40 0067  02.08.2006

@<TRIPOS>MOLECULE
ASD00192042
  31   34    0    0    0
SMALL
NO_CHARGES


@<TRIPOS>ATOM
   1 N1            -0.0157     1.3046     0.0092 N.ar    
   2 C2             0.0021    -0.0041     0.0020 C.ar    
   3 C3             1.2127    -0.7187    -0.0129 C.ar    
   4 C4             2.4217    -0.0117    -0.0206 C.ar    
   5 C5             2.3737     1.3978    -0.0131 C.ar    
   6 C6             3.5410     2.1727    -0.0204 C.ar    
   7 C7             3.4495     3.5327    -0.0130 C.ar    
   8 C8             2.2082     4.1624     0.0018 C.ar    
   9 C9             1.0545     3.4385     0.0092 C.ar    
  10 C10            1.1091     2.0354     0.0024 C.ar    
  11 C11            2.8229    -2.1751    -0.0346 C.2     
  12 N12            1.5281    -2.0370    -0.0221 N.2     
  13 N13            3.4187    -0.9521    -0.0343 N.pl3   
  14 O14           -1.2647     1.9716     0.0187 O.3     
  15 C15            3.5527    -3.4935    -0.0466 C.3     
  16 C16            3.9461    -3.9671    -1.4558 C.3     
  17 C17            5.2777    -4.4315    -0.8426 C.3     
  18 C18            5.0573    -3.3674     0.2455 C.3     
  19 H19           -0.9321    -0.5459     0.0080 H       
  20 H20            4.5093     1.6945    -0.0315 H       
  21 H21            4.3503     4.1284    -0.0183 H       
  22 H22            2.1592     5.2412     0.0078 H       
  23 H23            0.0995     3.9427     0.0204 H       
  24 H24            4.3728    -0.7778    -0.0425 H       
  25 H25            3.0539    -4.2589     0.5479 H       
  26 H26            3.3291    -4.7842    -1.8299 H       
  27 H27            4.0560    -3.1550    -2.1745 H       
  28 H28            5.2517    -5.4537    -0.4653 H       
  29 H29            6.1423    -4.2351    -1.4766 H       
  30 H30            5.4710    -2.3914    -0.0081 H       
  31 H31            5.3375    -3.7003     1.2449 H       
@<TRIPOS>BOND
   1    1    2 ar
   2    1   10 ar
   3    1   14 1
   4    2    3 ar
   5    2   19 1
   6    3    4 ar
   7    3   12 1
   8    4    5 ar
   9    4   13 1
  10    5    6 ar
  11    5   10 ar
  12    6    7 ar
  13    6   20 1
  14    7    8 ar
  15    7   21 1
  16    8    9 ar
  17    8   22 1
  18    9   10 ar
  19    9   23 1
  20   11   12 2
  21   11   13 1
  22   11   15 1
  23   13   24 1
  24   15   16 1
  25   15   18 1
  26   15   25 1
  27   16   17 1
  28   16   26 1
  29   16   27 1
  30   17   18 1
  31   17   28 1
  32   17   29 1
  33   18   30 1
  34   18   31 1

#	End of record

