#	Name: ASD03082440
#	Creating user name:	WinNT
#	Creation time:	15. 06. 2019 20:27

#	Modifying user name:	WinNT
#	Modification time:	15. 06. 2019 20:27

#	Program:	/corina/corina34_cracker 3.40 0067  02.08.2006

@<TRIPOS>MOLECULE
ASD03082440
  49   51    0    0    0
SMALL
NO_CHARGES


@<TRIPOS>ATOM
   1 C1             1.0958     3.4373    -0.4834 C.ar    
   2 C2             0.0398     4.0502    -1.1475 C.ar    
   3 C3            -0.0097     5.4270    -1.2449 C.ar    
   4 C4             0.9899     6.1986    -0.6828 C.ar    
   5 C5             2.0468     5.5923    -0.0185 C.ar    
   6 N6             1.1463     2.0447    -0.3852 N.pl3   
   7 C7             2.3816     1.3942    -0.2958 C.2     
   8 C8             2.5750     0.0188    -0.0809 C.2     
   9 N9             3.5599     1.9620    -0.4039 N.2     
  10 N10            4.5387     0.9708    -0.2562 N.pl3   
  11 C11            3.9062    -0.2154    -0.0588 C.2     
  12 C12            5.9221     1.1668    -0.3067 C.ar    
  13 C13            6.7450     0.2798    -0.9981 C.ar    
  14 C14            6.5130     2.2575     0.3284 C.ar    
  15 C15            7.8818     2.4155     0.2550 C.ar    
  16 N16            8.6280     1.5504    -0.4053 N.ar    
  17 C17            8.1055     0.5086    -1.0240 C.ar    
  18 C18            8.5327     3.5911     0.9371 C.3     
  19 C19            9.0066    -0.4469    -1.7629 C.3     
  20 C20            2.1031     4.2107     0.0770 C.ar    
  21 O21            3.0287     6.3526     0.5335 O.3     
  22 C22            4.5698    -1.5525     0.1483 C.3     
  23 C23            4.6203    -2.2965    -1.1614 C.2     
  24 O24            5.1719    -3.5189    -1.2180 O.3     
  25 O25            4.1641    -1.7926    -2.1603 O.2     
  26 C26            5.1858    -4.1764    -2.5125 C.3     
  27 C27            2.9090     7.7695     0.3920 C.3     
  28 F28            1.7197     8.1992     0.9904 F       
  29 F29            3.9959     8.3936     1.0136 F       
  30 F30            2.8945     8.1029    -0.9667 F       
  31 H31           -0.7423     3.4496    -1.5879 H       
  32 H32           -0.8308     5.9016    -1.7615 H       
  33 H33            0.9485     7.2750    -0.7609 H       
  34 H34            0.3249     1.5288    -0.3789 H       
  35 H35            1.7976    -0.7203     0.0449 H       
  36 H36            6.3238    -0.5750    -1.5064 H       
  37 H37            5.9080     2.9695     0.8701 H       
  38 H38            8.7999     3.3168     1.9576 H       
  39 H39            9.4315     3.8764     0.3904 H       
  40 H40            7.8375     4.4304     0.9566 H       
  41 H41            9.3300    -1.2381    -1.0864 H       
  42 H42            8.4635    -0.8845    -2.6005 H       
  43 H43            9.8783     0.0907    -2.1361 H       
  44 H44            2.9249     3.7371     0.5936 H       
  45 H45            5.5834    -1.4015     0.5196 H       
  46 H46            3.9997    -2.1326     0.8739 H       
  47 H47            4.1630    -4.2999    -2.8683 H       
  48 H48            5.7467    -3.5688    -3.2227 H       
  49 H49            5.6583    -5.1542    -2.4183 H       
@<TRIPOS>BOND
   1    1    2 ar
   2    1    6 1
   3    1   20 ar
   4    2    3 ar
   5    2   31 1
   6    3    4 ar
   7    3   32 1
   8    4    5 ar
   9    4   33 1
  10    5   20 ar
  11    5   21 1
  12    6    7 1
  13    6   34 1
  14    7    8 1
  15    7    9 2
  16    8   11 2
  17    8   35 1
  18    9   10 1
  19   10   11 1
  20   10   12 1
  21   11   22 1
  22   12   13 ar
  23   12   14 ar
  24   13   17 ar
  25   13   36 1
  26   14   15 ar
  27   14   37 1
  28   15   16 ar
  29   15   18 1
  30   16   17 ar
  31   17   19 1
  32   18   38 1
  33   18   39 1
  34   18   40 1
  35   19   41 1
  36   19   42 1
  37   19   43 1
  38   20   44 1
  39   21   27 1
  40   22   23 1
  41   22   45 1
  42   22   46 1
  43   23   24 1
  44   23   25 2
  45   24   26 1
  46   26   47 1
  47   26   48 1
  48   26   49 1
  49   27   28 1
  50   27   29 1
  51   27   30 1

#	End of record

