#	Name: ASD01911486
#	Creating user name:	WinNT
#	Creation time:	15. 06. 2019 19:57

#	Modifying user name:	WinNT
#	Modification time:	15. 06. 2019 19:57

#	Program:	/corina/corina34_cracker 3.40 0067  02.08.2006

@<TRIPOS>MOLECULE
ASD01911486
  30   31    0    0    0
SMALL
NO_CHARGES


@<TRIPOS>ATOM
   1 C1            -0.0095     1.3397    -0.1332 C.2     
   2 N2             0.0078    -0.0015    -0.1500 N.am    
   3 C3             1.2612    -0.7483    -0.0316 C.3     
   4 C4             2.2606     0.0737     0.7892 C.3     
   5 C5             2.4202     1.4477     0.1297 C.3     
   6 N6             1.1039     2.0753     0.0027 N.am    
   7 O7            -1.0761     1.9113    -0.2507 O.2     
   8 C8             0.9975    -2.0819     0.6703 C.3     
   9 C9             1.8355    -1.0075    -1.4259 C.3     
  10 C10            1.0055     3.4658     0.0228 C.ar    
  11 C11            0.8697     4.1291     1.2372 C.ar    
  12 C12            0.7736     5.5092     1.2432 C.ar    
  13 C13            0.8167     6.1816     0.0286 C.ar    
  14 C14            0.9532     5.4582    -1.1400 C.ar    
  15 N15            1.0476     4.1424    -1.1139 N.ar    
  16 I16            0.6754     8.2710    -0.0302 I       
  17 H17           -0.8273    -0.4863    -0.2421 H       
  18 H18            1.8860     0.1968     1.8054 H       
  19 H19            3.2237    -0.4362     0.8105 H       
  20 H20            3.0648     2.0748     0.7457 H       
  21 H21            2.8637     1.3280    -0.8588 H       
  22 H22            0.2821    -2.6634     0.0887 H       
  23 H23            1.9313    -2.6372     0.7580 H       
  24 H24            0.5911    -1.8952     1.6643 H       
  25 H25            2.0254    -0.0564    -1.9232 H       
  26 H26            2.7687    -1.5636    -1.3367 H       
  27 H27            1.1215    -1.5873    -2.0109 H       
  28 H28            0.8394     3.5744     2.1634 H       
  29 H29            0.6670     6.0514     2.1711 H       
  30 H30            0.9869     5.9764    -2.0870 H       
@<TRIPOS>BOND
   1    1    2 am
   2    1    6 am
   3    1    7 2
   4    2    3 1
   5    2   17 1
   6    3    4 1
   7    3    8 1
   8    3    9 1
   9    4    5 1
  10    4   18 1
  11    4   19 1
  12    5    6 1
  13    5   20 1
  14    5   21 1
  15    6   10 1
  16    8   22 1
  17    8   23 1
  18    8   24 1
  19    9   25 1
  20    9   26 1
  21    9   27 1
  22   10   11 ar
  23   10   15 ar
  24   11   12 ar
  25   11   28 1
  26   12   13 ar
  27   12   29 1
  28   13   14 ar
  29   13   16 1
  30   14   15 ar
  31   14   30 1

#	End of record

