#	Name: ASD08830159
#	Creating user name:	WinNT
#	Creation time:	15. 06. 2019 21:19

#	Modifying user name:	WinNT
#	Modification time:	15. 06. 2019 21:19

#	Program:	/corina/corina34_cracker 3.40 0067  02.08.2006

@<TRIPOS>MOLECULE
ASD08830159
  44   46    0    0    0
SMALL
NO_CHARGES


@<TRIPOS>ATOM
   1 C1            -0.0179     1.4676     0.0101 C.ar    
   2 C2             0.0021    -0.0041     0.0020 C.2     
   3 C3             1.3172    -0.7397    -0.0145 C.3     
   4 C4             1.0581    -2.2476    -0.0201 C.3     
   5 N5             2.3401    -2.9647    -0.0362 N.3     
   6 O6            -1.0396    -0.6246     0.0086 O.2     
   7 C7             1.1825     2.1859     0.0025 C.ar    
   8 C8            -0.0398     4.2455     0.0252 C.ar    
   9 C9            -1.2444     3.5419     0.0267 C.ar    
  10 C10            2.1422    -4.4028     0.1963 C.3     
  11 C11            1.1628     3.5656     0.0101 C.ar    
  12 C12           -1.2356     2.1519     0.0196 C.ar    
  13 C13            3.4931    -5.1184     0.1121 C.3     
  14 O14            4.3950    -4.5362     1.0571 O.3     
  15 C15            4.6112    -3.1363     0.8596 C.3     
  16 C16            3.2717    -2.4007     0.9513 C.3     
  17 C17           -2.5338     4.2764     0.0435 C.ar    
  18 C18           -3.7520     3.5882     0.0452 C.ar    
  19 C19           -4.9292     4.3051     0.0615 C.ar    
  20 N20           -4.9207     5.6249     0.0749 N.ar    
  21 C21           -3.7916     6.3177     0.0739 C.ar    
  22 C22           -2.5627     5.6707     0.0638 C.ar    
  23 N23           -3.8372     7.7073     0.0880 N.pl3   
  24 H24            1.8766    -0.4639    -0.9084 H       
  25 H25            1.8936    -0.4734     0.8715 H       
  26 H26            0.4987    -2.5235     0.8738 H       
  27 H27            0.4817    -2.5139    -0.9061 H       
  28 H28            2.1258     1.6600    -0.0089 H       
  29 H29           -0.0474     5.3255     0.0307 H       
  30 H30            1.7104    -4.5556     1.1854 H       
  31 H31            1.4696    -4.8048    -0.5613 H       
  32 H32            2.0917     4.1165     0.0045 H       
  33 H33           -2.1660     1.6035     0.0210 H       
  34 H34            3.3596    -6.1759     0.3402 H       
  35 H35            3.8999    -5.0108    -0.8933 H       
  36 H36            5.2863    -2.7603     1.6283 H       
  37 H37            5.0505    -2.9711    -0.1242 H       
  38 H38            3.4234    -1.3412     0.7449 H       
  39 H39            2.8579    -2.5214     1.9525 H       
  40 H40           -3.7698     2.5084     0.0336 H       
  41 H41           -5.8725     3.7792     0.0629 H       
  42 H42           -1.6439     6.2384     0.0633 H       
  43 H43           -4.6927     8.1644     0.0985 H       
  44 H44           -3.0136     8.2196     0.0873 H       
@<TRIPOS>BOND
   1    1    2 1
   2    1    7 ar
   3    1   12 ar
   4    2    3 1
   5    2    6 2
   6    3    4 1
   7    3   24 1
   8    3   25 1
   9    4    5 1
  10    4   26 1
  11    4   27 1
  12    5   10 1
  13    5   16 1
  14    7   11 ar
  15    7   28 1
  16    8    9 ar
  17    8   11 ar
  18    8   29 1
  19    9   12 ar
  20    9   17 1
  21   10   13 1
  22   10   30 1
  23   10   31 1
  24   11   32 1
  25   12   33 1
  26   13   14 1
  27   13   34 1
  28   13   35 1
  29   14   15 1
  30   15   16 1
  31   15   36 1
  32   15   37 1
  33   16   38 1
  34   16   39 1
  35   17   18 ar
  36   17   22 ar
  37   18   19 ar
  38   18   40 1
  39   19   20 ar
  40   19   41 1
  41   20   21 ar
  42   21   22 ar
  43   21   23 1
  44   22   42 1
  45   23   43 1
  46   23   44 1

#	End of record

