#	Name: ASD03910004
#	Creating user name:	WinNT
#	Creation time:	15. 06. 2019 20:47

#	Modifying user name:	WinNT
#	Modification time:	15. 06. 2019 20:47

#	Program:	/corina/corina34_cracker 3.40 0067  02.08.2006

@<TRIPOS>MOLECULE
ASD03910004
  31   31    0    0    0
SMALL
NO_CHARGES


@<TRIPOS>ATOM
   1 C1            -0.0785     1.6498    -1.4871 C.2     
   2 C2            -0.0852     0.1641    -1.2347 C.3     
   3 O3             0.9614     2.2640    -1.4513 O.2     
   4 C4             1.3210    -0.3059    -0.9645 C.ar    
   5 C5             1.8067    -0.3215     0.3299 C.ar    
   6 C6             3.0953    -0.7519     0.5802 C.ar    
   7 C7             3.9022    -1.1686    -0.4685 C.ar    
   8 C8             3.4125    -1.1520    -1.7665 C.ar    
   9 C9             2.1212    -0.7261    -2.0108 C.ar    
  10 O10            5.1704    -1.5920    -0.2249 O.3     
  11 C11            5.9041    -2.1149    -1.3341 C.3     
  12 C12            6.0373    -1.0521    -2.3942 C.2     
  13 O13            5.5535     0.0410    -2.2180 O.2     
  14 O14            6.6933    -1.3198    -3.5343 O.3     
  15 O15           -1.2270     2.2898    -1.7572 O.3     
  16 C16            7.2957    -2.5466    -0.8672 C.3     
  17 C17            5.1629    -3.3220    -1.9124 C.3     
  18 H18           -0.7136    -0.0550    -0.3715 H       
  19 H19           -0.4786    -0.3515    -2.1108 H       
  20 H20            1.1782     0.0033     1.1460 H       
  21 H21            3.4744    -0.7636     1.5914 H       
  22 H22            4.0387    -1.4759    -2.5846 H       
  23 H23            1.7395    -0.7129    -3.0210 H       
  24 H24            6.7527    -0.6065    -4.1845 H       
  25 H25           -1.1726     3.2428    -1.9121 H       
  26 H26            7.1990    -3.2693    -0.0570 H       
  27 H27            7.8327    -3.0027    -1.6988 H       
  28 H28            7.8466    -1.6753    -0.5131 H       
  29 H29            4.1279    -3.0486    -2.1178 H       
  30 H30            5.6462    -3.6360    -2.8376 H       
  31 H31            5.1866    -4.1413    -1.1939 H       
@<TRIPOS>BOND
   1    1    2 1
   2    1    3 2
   3    1   15 1
   4    2    4 1
   5    2   18 1
   6    2   19 1
   7    4    5 ar
   8    4    9 ar
   9    5    6 ar
  10    5   20 1
  11    6    7 ar
  12    6   21 1
  13    7    8 ar
  14    7   10 1
  15    8    9 ar
  16    8   22 1
  17    9   23 1
  18   10   11 1
  19   11   12 1
  20   11   16 1
  21   11   17 1
  22   12   13 2
  23   12   14 1
  24   14   24 1
  25   15   25 1
  26   16   26 1
  27   16   27 1
  28   16   28 1
  29   17   29 1
  30   17   30 1
  31   17   31 1

#	End of record

