#	Name: ASD00069219
#	Creating user name:	WinNT
#	Creation time:	15. 06. 2019 18:29

#	Modifying user name:	WinNT
#	Modification time:	15. 06. 2019 18:29

#	Program:	/corina/corina34_cracker 3.40 0067  02.08.2006

@<TRIPOS>MOLECULE
ASD00069219
  95  101    0    0    0
SMALL
NO_CHARGES


@<TRIPOS>ATOM
   1 N1            -0.1903     0.8542    -0.1461 N.3     
   2 C2            -0.0822    -0.6090    -0.0849 C.3     
   3 C3             0.6263    -1.1224    -1.3405 C.3     
   4 C4             2.0191    -0.4924    -1.4283 C.3     
   5 C5             1.8810     1.0325    -1.4418 C.3     
   6 C6             1.1360     1.4835    -0.1833 C.3     
   7 C7             0.7561    -2.6220    -1.2672 C.2     
   8 O8             0.3246    -3.2218    -0.3055 O.2     
   9 N9             1.3519    -3.2966    -2.2704 N.am    
  10 C10            0.9780     3.0052    -0.2022 C.3     
  11 C11           -2.7384     2.5650     1.6905 C.ar    
  12 N12           -2.0139     2.0953     0.6857 N.ar    
  13 C13           -0.9416     1.3414     0.9117 C.ar    
  14 C14           -0.5839     1.0475     2.2263 C.ar    
  15 C15           -1.3698     1.5591     3.2566 C.ar    
  16 N16           -2.4307     2.3077     2.9517 N.ar    
  17 N17           -3.8437     3.3508     1.4140 N.pl3   
  18 C18           -4.6587     3.8804     2.5101 C.3     
  19 C19           -0.0147     0.5083     6.4173 C.2     
  20 N20            0.0022     0.5417     5.1042 N.2     
  21 C21           -1.0318     1.2754     4.6718 C.2     
  22 C22           -1.7250     1.7194     5.7764 C.2     
  23 N23           -1.0834     1.2360     6.8626 N.pl3   
  24 C24            0.9555    -0.2022     7.2707 C.2     
  25 N25            1.9676    -0.8928     6.7093 N.am    
  26 O26            0.8424    -0.1651     8.4810 O.2     
  27 C27            2.9392    -1.4937     7.5193 C.ar    
  28 C28            4.2257    -1.7074     7.0260 C.ar    
  29 C29            5.1843    -2.3038     7.8345 C.ar    
  30 C30            4.8604    -2.6837     9.1255 C.ar    
  31 C31            3.5841    -2.4711     9.6131 C.ar    
  32 C32            2.6259    -1.8728     8.8164 C.ar    
  33 C33            7.5365    -1.4803     3.3927 C.3     
  34 N34            7.4703    -1.6157     1.9245 N.3     
  35 C35            6.4577    -0.5419     1.9240 C.3     
  36 C36            6.0990    -0.9606     3.3501 C.3     
  37 C37            5.0374    -2.0537     3.4324 C.3     
  38 C38            4.8822    -2.4900     4.8932 C.3     
  39 N39            4.5500    -1.3221     5.7189 N.3     
  40 C40            5.6371    -0.3350     5.7157 C.3     
  41 C41            5.8292     0.2068     4.2952 C.3     
  42 F42            6.4321    -2.5134     7.3611 F       
  43 C43            1.4781    -4.7545    -2.1992 C.3     
  44 C44            1.5857    -5.3268    -3.6141 C.3     
  45 C45            1.7176    -6.8493    -3.5397 C.3     
  46 C46            2.9730    -7.2142    -2.7451 C.3     
  47 C47            2.8654    -6.6419    -1.3302 C.3     
  48 C48            2.7336    -5.1194    -1.4046 C.3     
  49 H49            0.4904    -0.8943     0.7976 H       
  50 H50           -1.0797    -1.0447    -0.0270 H       
  51 H51            0.0471    -0.8494    -2.2226 H       
  52 H52            2.6117    -0.7969    -0.5656 H       
  53 H53            2.5108    -0.8217    -2.3437 H       
  54 H54            2.8713     1.4875    -1.4611 H       
  55 H55            1.3215     1.3395    -2.3254 H       
  56 H56            1.7029     1.1883     0.6997 H       
  57 H57            1.6970    -2.8169    -3.0396 H       
  58 H58            0.4483     3.3266     0.6946 H       
  59 H59            1.9624     3.4724    -0.2298 H       
  60 H60            0.4107     3.3006    -1.0848 H       
  61 H61            0.2812     0.4377     2.4411 H       
  62 H62           -4.0788     3.5507     0.4944 H       
  63 H63           -5.0627     3.0539     3.0947 H       
  64 H64           -4.0412     4.5105     3.1503 H       
  65 H65           -5.4784     4.4710     2.1009 H       
  66 H66           -2.6117     2.3359     5.7743 H       
  67 H67           -1.3350     1.3785     7.7885 H       
  68 H68            2.0231    -0.9737     5.7443 H       
  69 H69            5.6065    -3.1478     9.7535 H       
  70 H70            3.3363    -2.7697    10.6210 H       
  71 H71            1.6315    -1.7041     9.2027 H       
  72 H72            7.6392    -2.4327     3.9128 H       
  73 H73            8.2582    -0.7356     3.7284 H       
  74 H74            8.3278    -1.3043     1.4936 H       
  75 H75            6.8852     0.4586     1.8593 H       
  76 H76            5.6523    -0.7044     1.2077 H       
  77 H77            4.0870    -1.6675     3.0641 H       
  78 H78            5.3449    -2.9069     2.8277 H       
  79 H79            4.0836    -3.2279     4.9692 H       
  80 H80            5.8169    -2.9284     5.2429 H       
  81 H81            5.3846     0.4859     6.3868 H       
  82 H82            6.5593    -0.8089     6.0518 H       
  83 H83            6.6759     0.8931     4.2781 H       
  84 H84            4.9270     0.7306     3.9795 H       
  85 H85            0.6009    -5.1714    -1.7044 H       
  86 H86            0.6913    -5.0667    -4.1802 H       
  87 H87            2.4629    -4.9099    -4.1089 H       
  88 H88            0.8404    -7.2662    -3.0449 H       
  89 H89            1.7943    -7.2570    -4.5477 H       
  90 H90            3.0670    -8.2989    -2.6921 H       
  91 H91            3.8502    -6.7973    -3.2399 H       
  92 H92            1.9882    -7.0588    -0.8354 H       
  93 H93            3.7598    -6.9020    -0.7641 H       
  94 H94            3.6108    -4.7025    -1.8994 H       
  95 H95            2.6569    -4.7117    -0.3966 H       
@<TRIPOS>BOND
   1    1    2 1
   2    1    6 1
   3    1   13 1
   4    2    3 1
   5    2   49 1
   6    2   50 1
   7    3    4 1
   8    3    7 1
   9    3   51 1
  10    4    5 1
  11    4   52 1
  12    4   53 1
  13    5    6 1
  14    5   54 1
  15    5   55 1
  16    6   10 1
  17    6   56 1
  18    7    8 2
  19    7    9 am
  20    9   43 1
  21    9   57 1
  22   10   58 1
  23   10   59 1
  24   10   60 1
  25   11   12 ar
  26   11   16 ar
  27   11   17 1
  28   12   13 ar
  29   13   14 ar
  30   14   15 ar
  31   14   61 1
  32   15   16 ar
  33   15   21 1
  34   17   18 1
  35   17   62 1
  36   18   63 1
  37   18   64 1
  38   18   65 1
  39   19   20 2
  40   19   23 1
  41   19   24 1
  42   20   21 1
  43   21   22 2
  44   22   23 1
  45   22   66 1
  46   23   67 1
  47   24   25 am
  48   24   26 2
  49   25   27 1
  50   25   68 1
  51   27   28 ar
  52   27   32 ar
  53   28   29 ar
  54   28   39 1
  55   29   30 ar
  56   29   42 1
  57   30   31 ar
  58   30   69 1
  59   31   32 ar
  60   31   70 1
  61   32   71 1
  62   33   34 1
  63   33   36 1
  64   33   72 1
  65   33   73 1
  66   34   35 1
  67   34   74 1
  68   35   36 1
  69   35   75 1
  70   35   76 1
  71   36   37 1
  72   36   41 1
  73   37   38 1
  74   37   77 1
  75   37   78 1
  76   38   39 1
  77   38   79 1
  78   38   80 1
  79   39   40 1
  80   40   41 1
  81   40   81 1
  82   40   82 1
  83   41   83 1
  84   41   84 1
  85   43   44 1
  86   43   48 1
  87   43   85 1
  88   44   45 1
  89   44   86 1
  90   44   87 1
  91   45   46 1
  92   45   88 1
  93   45   89 1
  94   46   47 1
  95   46   90 1
  96   46   91 1
  97   47   48 1
  98   47   92 1
  99   47   93 1
 100   48   94 1
 101   48   95 1

#	End of record

