#	Name: ASD04910218
#	Creating user name:	WinNT
#	Creation time:	15. 06. 2019 20:55

#	Modifying user name:	WinNT
#	Modification time:	15. 06. 2019 20:55

#	Program:	/corina/corina34_cracker 3.40 0067  02.08.2006

@<TRIPOS>MOLECULE
ASD04910218
  30   32    0    0    0
SMALL
NO_CHARGES


@<TRIPOS>ATOM
   1 C1            -0.0167     1.3840     0.0097 C.ar    
   2 C2             0.0021    -0.0041     0.0020 C.ar    
   3 C3             1.2281    -0.6661    -0.0133 C.ar    
   4 C4             2.3858     0.0919    -0.0203 C.ar    
   5 C5             2.2884     1.4774    -0.0119 C.ar    
   6 N6             1.1073     2.0731     0.0026 N.ar    
   7 N7            -1.1941    -0.7287     0.0101 N.pl3   
   8 C8             4.7281     1.7917    -0.1286 C.2     
   9 N9             5.5470     2.8053    -0.0973 N.2     
  10 C10            4.8393     3.9461     0.0328 C.2     
  11 C11            3.5224     3.6165     0.0838 C.2     
  12 N12            3.4538     2.2527    -0.0185 N.pl3   
  13 C13            5.3997     5.3177     0.1071 C.ar    
  14 C14            6.7777     5.5147     0.0417 C.ar    
  15 C15            7.2935     6.7930     0.1108 C.ar    
  16 C16            6.4454     7.8774     0.2451 C.ar    
  17 C17            5.0767     7.6877     0.3110 C.ar    
  18 C18            4.5496     6.4144     0.2367 C.ar    
  19 H19           -0.9626     1.9052     0.0170 H       
  20 H20            1.2738    -1.7451    -0.0192 H       
  21 H21            3.3533    -0.3880    -0.0318 H       
  22 H22           -2.0441    -0.2616     0.0210 H       
  23 H23           -1.1737    -1.6985     0.0046 H       
  24 H24            5.0147     0.7554    -0.2301 H       
  25 H25            2.6908     4.2980     0.1856 H       
  26 H26            7.4409     4.6686    -0.0625 H       
  27 H27            8.3613     6.9468     0.0602 H       
  28 H28            6.8533     8.8760     0.2992 H       
  29 H29            4.4192     8.5380     0.4163 H       
  30 H30            3.4806     6.2678     0.2833 H       
@<TRIPOS>BOND
   1    1    2 ar
   2    1    6 ar
   3    1   19 1
   4    2    3 ar
   5    2    7 1
   6    3    4 ar
   7    3   20 1
   8    4    5 ar
   9    4   21 1
  10    5    6 ar
  11    5   12 1
  12    7   22 1
  13    7   23 1
  14    8    9 2
  15    8   12 1
  16    8   24 1
  17    9   10 1
  18   10   11 2
  19   10   13 1
  20   11   12 1
  21   11   25 1
  22   13   14 ar
  23   13   18 ar
  24   14   15 ar
  25   14   26 1
  26   15   16 ar
  27   15   27 1
  28   16   17 ar
  29   16   28 1
  30   17   18 ar
  31   17   29 1
  32   18   30 1

#	End of record

