#	Name: ASD03091660
#	Creating user name:	WinNT
#	Creation time:	15. 06. 2019 20:31

#	Modifying user name:	WinNT
#	Modification time:	15. 06. 2019 20:31

#	Program:	/corina/corina34_cracker 3.40 0067  02.08.2006

@<TRIPOS>MOLECULE
ASD03091660
  44   45    0    0    0
SMALL
NO_CHARGES


@<TRIPOS>ATOM
   1 Cl1            0.0000     0.0000     0.0000 Cl      
   2 H2             0.0000     1.3700     0.0000 H       
   3 Cl3            5.0000     6.3700     5.0000 Cl      
   4 H4             5.0000     7.7400     5.0000 H       
   5 C5            19.5227    16.7194    11.5680 C.ar    
   6 C6            19.5417    15.3211    11.5603 C.ar    
   7 C7            20.7698    14.6388    11.5449 C.ar    
   8 C8            21.9540    15.3475    11.5379 C.ar    
   9 C9            21.9348    16.7366    11.5455 C.ar    
  10 C10           20.7576    17.4152    11.5600 C.ar    
  11 S11           17.8919    14.7085    11.5734 S.3     
  12 C12           17.2352    16.3358    11.5886 C.2     
  13 C13           18.2193    17.2412    11.5890 C.2     
  14 C14           15.8011    16.6591    11.6046 C.2     
  15 O15           15.4395    17.8205    11.6140 O.2     
  16 N16           14.8871    15.6686    11.6089 N.am    
  17 N17           11.9514    15.2468    13.4059 N.3     
  18 C18           12.9995    16.2191    13.0680 C.3     
  19 C19           13.4580    15.9907    11.6248 C.3     
  20 C20           12.6611    14.8222    11.0314 C.3     
  21 C21           11.1682    15.1698    11.0873 C.3     
  22 C22           10.7730    15.4203    12.5454 C.3     
  23 C23           12.4621    13.8713    13.3272 C.3     
  24 C24           12.9060    13.5761    11.8917 C.3     
  25 N25           20.7922    13.2408    11.5372 N.pl3   
  26 H26           22.8972    14.8214    11.5267 H       
  27 H27           22.8661    17.2834    11.5403 H       
  28 H28           20.7630    18.4952    11.5653 H       
  29 H29           18.0244    18.3034    11.5977 H       
  30 H30           15.1755    14.7425    11.6014 H       
  31 H31           12.6039    17.2299    13.1683 H       
  32 H32           13.8458    16.0909    13.7430 H       
  33 H33           13.2781    16.8912    11.0376 H       
  34 H34           12.9665    14.6458    10.0000 H       
  35 H35           10.9799    16.0676    10.4985 H       
  36 H36           10.5848    14.3401    10.6883 H       
  37 H37           10.0000    14.7105    12.8398 H       
  38 H38           10.3929    16.4366    12.6497 H       
  39 H39           13.3118    13.7597    14.0008 H       
  40 H40           11.6752    13.1741    13.6152 H       
  41 H41           12.3295    12.7400    11.4958 H       
  42 H42           13.9673    13.3279    11.8813 H       
  43 H43           19.9601    12.7424    11.5425 H       
  44 H44           21.6399    12.7694    11.5266 H       
@<TRIPOS>BOND
   1    1    2 1
   2    3    4 1
   3    5    6 ar
   4    5   10 ar
   5    5   13 1
   6    6    7 ar
   7    6   11 1
   8    7    8 ar
   9    7   25 1
  10    8    9 ar
  11    8   26 1
  12    9   10 ar
  13    9   27 1
  14   10   28 1
  15   11   12 1
  16   12   13 2
  17   12   14 1
  18   13   29 1
  19   14   15 2
  20   14   16 am
  21   16   19 1
  22   16   30 1
  23   17   18 1
  24   17   22 1
  25   17   23 1
  26   18   19 1
  27   18   31 1
  28   18   32 1
  29   19   20 1
  30   19   33 1
  31   20   21 1
  32   20   24 1
  33   20   34 1
  34   21   22 1
  35   21   35 1
  36   21   36 1
  37   22   37 1
  38   22   38 1
  39   23   24 1
  40   23   39 1
  41   23   40 1
  42   24   41 1
  43   24   42 1
  44   25   43 1
  45   25   44 1

#	End of record

