#	Name: ASD05990002
#	Creating user name:	WinNT
#	Creation time:	15. 06. 2019 21:04

#	Modifying user name:	WinNT
#	Modification time:	15. 06. 2019 21:04

#	Program:	/corina/corina34_cracker 3.40 0067  02.08.2006

@<TRIPOS>MOLECULE
ASD05990002
  46   46    0    0    0
SMALL
NO_CHARGES


@<TRIPOS>ATOM
   1 C1            -0.0168     1.3877     0.0097 C.ar    
   2 C2             0.0021    -0.0041     0.0020 C.ar    
   3 C3             1.2127    -0.6772    -0.0132 C.ar    
   4 C4             2.3989     0.0335    -0.0207 C.ar    
   5 C5             2.3802     1.4154    -0.0131 C.ar    
   6 C6             1.1751     2.0936     0.0021 C.ar    
   7 C7             3.6758     2.1850    -0.0208 C.3     
   8 N8             4.0831     2.4417    -1.4044 N.am    
   9 C9             5.2201     3.1197    -1.6575 C.2     
  10 C10            5.6389     3.3838    -3.0808 C.3     
  11 C11            6.9544     4.1651    -3.0887 C.3     
  12 C12            7.3797     4.4333    -4.5337 C.3     
  13 C13            8.6952     5.2145    -4.5416 C.3     
  14 C14            9.1140     5.4787    -5.9649 C.2     
  15 O15            5.9061     3.5172    -0.7398 O.2     
  16 C16            9.3511     6.7046    -6.3611 C.2     
  17 C17            9.7700     6.9688    -7.7844 C.3     
  18 C18            8.7482     7.8898    -8.4542 C.3     
  19 C19           11.1451     7.6393    -7.7953 C.3     
  20 O20           -1.1654    -0.7015     0.0099 O.3     
  21 O21           -1.2028     2.0531     0.0189 O.3     
  22 H22            1.2301    -1.7570    -0.0188 H       
  23 H23            3.3421    -0.4925    -0.0321 H       
  24 H24            1.1632     3.1735     0.0076 H       
  25 H25            3.5385     3.1329     0.4994 H       
  26 H26            4.4473     1.6025     0.4829 H       
  27 H27            3.5343     2.1238    -2.1384 H       
  28 H28            5.7763     2.4359    -3.6010 H       
  29 H29            4.8674     3.9662    -3.5845 H       
  30 H30            6.8171     5.1130    -2.5685 H       
  31 H31            7.7259     3.5827    -2.5850 H       
  32 H32            7.5170     3.4853    -5.0539 H       
  33 H33            6.6082     5.0157    -5.0374 H       
  34 H34            8.5579     6.1625    -4.0214 H       
  35 H35            9.4667     4.6321    -4.0379 H       
  36 H36            9.2188     4.6573    -6.6582 H       
  37 H37            9.2463     7.5260    -5.6678 H       
  38 H38            9.8211     6.0259    -8.3290 H       
  39 H39            8.6970     8.8326    -7.9096 H       
  40 H40            9.0511     8.0808    -9.4837 H       
  41 H41            7.7685     7.4121    -8.4465 H       
  42 H42           11.0940     8.5821    -7.2507 H       
  43 H43           11.8731     6.9831    -7.3181 H       
  44 H44           11.4481     7.8303    -8.8247 H       
  45 H45           -1.5118    -0.8984    -0.8712 H       
  46 H46           -1.5416     2.2408     0.9049 H       
@<TRIPOS>BOND
   1    1    2 ar
   2    1    6 ar
   3    1   21 1
   4    2    3 ar
   5    2   20 1
   6    3    4 ar
   7    3   22 1
   8    4    5 ar
   9    4   23 1
  10    5    6 ar
  11    5    7 1
  12    6   24 1
  13    7    8 1
  14    7   25 1
  15    7   26 1
  16    8    9 am
  17    8   27 1
  18    9   10 1
  19    9   15 2
  20   10   11 1
  21   10   28 1
  22   10   29 1
  23   11   12 1
  24   11   30 1
  25   11   31 1
  26   12   13 1
  27   12   32 1
  28   12   33 1
  29   13   14 1
  30   13   34 1
  31   13   35 1
  32   14   16 2
  33   14   36 1
  34   16   17 1
  35   16   37 1
  36   17   18 1
  37   17   19 1
  38   17   38 1
  39   18   39 1
  40   18   40 1
  41   18   41 1
  42   19   42 1
  43   19   43 1
  44   19   44 1
  45   20   45 1
  46   21   46 1

#	End of record

