#	Name: ASD04882564
#	Creating user name:	WinNT
#	Creation time:	15. 06. 2019 20:55

#	Modifying user name:	WinNT
#	Modification time:	15. 06. 2019 20:55

#	Program:	/corina/corina34_cracker 3.40 0067  02.08.2006

@<TRIPOS>MOLECULE
ASD04882564
  79   84    0    0    0
SMALL
NO_CHARGES


@<TRIPOS>ATOM
   1 C1            -0.1775     1.3902     0.1360 C.ar    
   2 C2             0.0072     0.0109     0.0073 C.ar    
   3 C3            -1.0916    -0.8407    -0.0116 C.ar    
   4 C4            -2.3655    -0.3285     0.0960 C.ar    
   5 C5            -2.5572     1.0499     0.2250 C.ar    
   6 C6            -1.4539     1.9077     0.2500 C.ar    
   7 N7             1.2934    -0.5112    -0.1027 N.3     
   8 C8             1.9247    -0.0946    -1.3620 C.3     
   9 C9             1.2807    -1.9743     0.0285 C.3     
  10 C10            2.7222    -2.4914     0.0838 C.3     
  11 N11            3.4478    -1.9783    -1.0881 N.pl3   
  12 C12            3.3926    -0.5346    -1.3637 C.3     
  13 C13           -3.9220     1.5983     0.3398 C.2     
  14 O14           -4.0878     2.7977     0.4520 O.2     
  15 N15           -4.9849     0.7700     0.3203 N.am    
  16 N16            0.9309     2.2472     0.1554 N.am    
  17 C17            4.1639    -2.8312    -1.9093 C.2     
  18 C18            4.7455    -2.3566    -3.0704 C.2     
  19 C19            5.4649    -3.2437    -3.8826 C.2     
  20 N20            5.5766    -4.5367    -3.5199 N.am    
  21 N21            4.9809    -4.9989    -2.3418 N.2     
  22 C22            4.3122    -4.1926    -1.5663 C.2     
  23 C23           -6.3402     1.3145     0.4343 C.3     
  24 C24            0.8438     3.4741    -0.3955 C.2     
  25 C25            2.0353     4.3395    -0.4598 C.2     
  26 O26           -0.2181     3.8673    -0.8397 O.2     
  27 N27            3.2813     4.0346    -0.0059 N.2     
  28 C28            4.0635     5.0454    -0.2396 C.2     
  29 O29            3.3622     6.0173    -0.8402 O.3     
  30 C30            2.0976     5.5917    -0.9895 C.2     
  31 C31            5.5278     5.1146     0.1098 C.3     
  32 C32            6.5190     5.3192    -1.0376 C.3     
  33 C33            6.2321     6.4620    -0.0615 C.3     
  34 C34           -7.3552     0.1708     0.3850 C.3     
  35 C35           -8.7706     0.7395     0.5041 C.3     
  36 N36           -9.7425    -0.3556     0.4569 N.am    
  37 C37          -10.1916    -1.0181     1.5369 C.2     
  38 C38          -10.3556    -0.8662    -0.7749 C.3     
  39 C39          -10.9401    -2.2469    -0.4027 C.3     
  40 C40          -11.1750    -2.0889     1.1186 C.3     
  41 O41           -9.8567    -0.7909     2.6802 O.2     
  42 O42            5.9870    -2.8473    -4.9132 O.2     
  43 C43            6.3280    -5.4663    -4.3670 C.3     
  44 H44           -0.9459    -1.9061    -0.1112 H       
  45 H45           -3.2171    -0.9926     0.0803 H       
  46 H46           -1.5990     2.9732     0.3499 H       
  47 H47            1.4050    -0.5585    -2.2003 H       
  48 H48            1.8701     0.9901    -1.4549 H       
  49 H49            0.7590    -2.2528     0.9441 H       
  50 H50            0.7699    -2.4120    -0.8292 H       
  51 H51            3.2032    -2.1380     0.9959 H       
  52 H52            2.7212    -3.5812     0.0656 H       
  53 H53            3.8348    -0.3308    -2.3389 H       
  54 H54            3.9380     0.0068    -0.5907 H       
  55 H55           -4.8526    -0.1868     0.2308 H       
  56 H56            1.7609     1.9574     0.5653 H       
  57 H57            4.6466    -1.3175    -3.3475 H       
  58 H58            3.8602    -4.5704    -0.6611 H       
  59 H59           -6.4391     1.8477     1.3798 H       
  60 H60           -6.5264     2.0014    -0.3914 H       
  61 H61            1.2833     6.1409    -1.4386 H       
  62 H62            5.8431     4.4836     0.9408 H       
  63 H63            7.4866     4.8231    -0.9613 H       
  64 H64            6.1120     5.4038    -2.0452 H       
  65 H65            5.6364     7.2984    -0.4270 H       
  66 H66            7.0110     6.7177     0.6569 H       
  67 H67           -7.2562    -0.3624    -0.5605 H       
  68 H68           -7.1690    -0.5160     1.2107 H       
  69 H69           -8.8696     1.2727     1.4496 H       
  70 H70           -8.9568     1.4264    -0.3216 H       
  71 H71          -11.1498    -0.1973    -1.1063 H       
  72 H72           -9.6019    -0.9736    -1.5549 H       
  73 H73          -11.8802    -2.4260    -0.9244 H       
  74 H74          -10.2237    -3.0422    -0.6087 H       
  75 H75          -10.9636    -3.0244     1.6365 H       
  76 H76          -12.1972    -1.7655     1.3152 H       
  77 H77            7.3729    -5.4768    -4.0570 H       
  78 H78            5.9094    -6.4678    -4.2675 H       
  79 H79            6.2606    -5.1460    -5.4067 H       
@<TRIPOS>BOND
   1    1    2 ar
   2    1   16 1
   3    1    6 ar
   4    2    3 ar
   5    2    7 1
   6    3    4 ar
   7    3   44 1
   8    4    5 ar
   9    4   45 1
  10    5    6 ar
  11    5   13 1
  12    6   46 1
  13    7    8 1
  14    7    9 1
  15    8   12 1
  16    8   47 1
  17    8   48 1
  18    9   10 1
  19    9   49 1
  20    9   50 1
  21   10   11 1
  22   10   51 1
  23   10   52 1
  24   11   12 1
  25   11   17 1
  26   12   53 1
  27   12   54 1
  28   13   14 2
  29   13   15 am
  30   15   23 1
  31   15   55 1
  32   16   24 am
  33   16   56 1
  34   17   18 2
  35   17   22 1
  36   18   19 1
  37   18   57 1
  38   19   20 am
  39   19   42 2
  40   20   21 1
  41   20   43 1
  42   21   22 2
  43   22   58 1
  44   23   34 1
  45   23   59 1
  46   23   60 1
  47   24   25 1
  48   24   26 2
  49   25   27 1
  50   25   30 2
  51   27   28 2
  52   28   29 1
  53   28   31 1
  54   29   30 1
  55   30   61 1
  56   31   32 1
  57   31   33 1
  58   31   62 1
  59   32   33 1
  60   32   63 1
  61   32   64 1
  62   33   65 1
  63   33   66 1
  64   34   35 1
  65   34   67 1
  66   34   68 1
  67   35   36 1
  68   35   69 1
  69   35   70 1
  70   36   37 am
  71   36   38 1
  72   37   41 2
  73   37   40 1
  74   38   39 1
  75   38   71 1
  76   38   72 1
  77   39   40 1
  78   39   73 1
  79   39   74 1
  80   40   75 1
  81   40   76 1
  82   43   77 1
  83   43   78 1
  84   43   79 1

#	End of record

