#	Name: ASD01150794
#	Creating user name:	WinNT
#	Creation time:	15. 06. 2019 19:05

#	Modifying user name:	WinNT
#	Modification time:	15. 06. 2019 19:05

#	Program:	/corina/corina34_cracker 3.40 0067  02.08.2006

@<TRIPOS>MOLECULE
ASD01150794
  42   43    0    0    0
SMALL
NO_CHARGES


@<TRIPOS>ATOM
   1 N1             0.1336     0.7148     0.5590 N.3     
   2 C2             1.5475     0.7323     0.9615 C.3     
   3 C3             2.2723    -0.4490     0.3110 C.3     
   4 O4             2.1124    -0.3769    -1.1083 O.3     
   5 C5             0.7477    -0.3923    -1.5355 C.3     
   6 C6             0.0074     0.7895    -0.9038 C.3     
   7 C7            -0.6120     1.8015     1.2080 C.3     
   8 C8             1.4976     4.4604    -0.2131 C.ar    
   9 N9             1.0966     3.3059     0.2805 N.ar    
  10 C10           -0.1625     3.1251     0.6450 C.ar    
  11 C11           -1.0625     4.1696     0.5017 C.ar    
  12 C12           -0.6035     5.3681    -0.0210 C.ar    
  13 N13            0.6703     5.4751    -0.3637 N.ar    
  14 C14           -1.5423     6.5337    -0.1973 C.3     
  15 S15           -2.3866     1.5849     0.9005 S.3     
  16 C16           -2.7243     0.5318     3.4022 C.3     
  17 C17           -2.8055     0.1468     1.9237 C.3     
  18 C18           -4.2260    -0.3168     1.5946 C.3     
  19 C19           -4.2769    -0.8190     0.1503 C.3     
  20 H20            2.0071     1.6654     0.6357 H       
  21 H21            1.6182     0.6502     2.0461 H       
  22 H22            3.3326    -0.4075     0.5605 H       
  23 H23            1.8477    -1.3834     0.6781 H       
  24 H24            0.7053    -0.3098    -2.6216 H       
  25 H25            0.2787    -1.3251    -1.2221 H       
  26 H26           -1.0461     0.7492    -1.1807 H       
  27 H27            0.4424     1.7236    -1.2593 H       
  28 H28           -0.4240     1.7805     2.2815 H       
  29 H29            2.5326     4.5794    -0.4976 H       
  30 H30           -2.0966     4.0520     0.7901 H       
  31 H31           -1.5415     7.1410     0.7078 H       
  32 H32           -1.2144     7.1398    -1.0418 H       
  33 H33           -2.5500     6.1634    -0.3854 H       
  34 H34           -3.5139     1.2461     3.6356 H       
  35 H35           -2.8476    -0.3597     4.0171 H       
  36 H36           -1.7536     0.9832     3.6073 H       
  37 H37           -2.1031    -0.6613     1.7195 H       
  38 H38           -4.5105    -1.1236     2.2701 H       
  39 H39           -4.9172     0.5175     1.7138 H       
  40 H40           -3.9924    -0.0122    -0.5251 H       
  41 H41           -3.5856    -1.6533     0.0312 H       
  42 H42           -5.2888    -1.1493    -0.0841 H       
@<TRIPOS>BOND
   1    1    2 1
   2    1    6 1
   3    1    7 1
   4    2    3 1
   5    2   20 1
   6    2   21 1
   7    3    4 1
   8    3   22 1
   9    3   23 1
  10    4    5 1
  11    5    6 1
  12    5   24 1
  13    5   25 1
  14    6   26 1
  15    6   27 1
  16    7   10 1
  17    7   15 1
  18    7   28 1
  19    8    9 ar
  20    8   13 ar
  21    8   29 1
  22    9   10 ar
  23   10   11 ar
  24   11   12 ar
  25   11   30 1
  26   12   13 ar
  27   12   14 1
  28   14   31 1
  29   14   32 1
  30   14   33 1
  31   15   17 1
  32   16   17 1
  33   16   34 1
  34   16   35 1
  35   16   36 1
  36   17   18 1
  37   17   37 1
  38   18   19 1
  39   18   38 1
  40   18   39 1
  41   19   40 1
  42   19   41 1
  43   19   42 1

#	End of record

