#	Name: ASD06610015
#	Creating user name:	WinNT
#	Creation time:	15. 06. 2019 21:07

#	Modifying user name:	WinNT
#	Modification time:	15. 06. 2019 21:07

#	Program:	/corina/corina34_cracker 3.40 0067  02.08.2006

@<TRIPOS>MOLECULE
ASD06610015
 334  335    0    0    0
SMALL
NO_CHARGES


@<TRIPOS>ATOM
   1 C1            -9.2771    -5.0670     7.1428 C.2     
   2 O2            -9.5790    -6.2413     7.1697 O.2     
   3 N3            -7.0298    -5.8384     7.6366 N.am    
   4 C4            -7.8503    -4.6499     7.3902 C.3     
   5 C5            -7.3162    -3.9069     6.1640 C.3     
   6 C6            -5.8322    -3.5929     6.3642 C.3     
   7 O7            -7.4777    -4.7250     5.0035 O.3     
   8 C8           -12.2938    -3.4903     5.8098 C.2     
   9 O9           -11.7562    -2.4207     5.6154 O.2     
  10 N10          -10.2167    -4.1354     6.8861 N.am    
  11 C11          -11.6026    -4.5413     6.6397 C.3     
  12 C12          -12.3330    -4.6987     7.9748 C.3     
  13 C13          -11.7043    -5.8462     8.7679 C.3     
  14 C14          -12.2160    -3.4007     8.7763 C.3     
  15 C15          -15.7083    -2.9572     4.6181 C.2     
  16 O16          -16.1230    -3.9392     5.1966 O.2     
  17 N17          -13.5094    -3.7390     5.2837 N.am    
  18 C18          -14.2275    -2.6823     4.5668 C.3     
  19 C19          -13.7650    -2.6501     3.1087 C.3     
  20 C20          -12.3120    -2.2545     3.0512 C.ar    
  21 C21          -11.3289    -3.2251     3.0999 C.ar    
  22 C22           -9.9961    -2.8623     3.0472 C.ar    
  23 C23           -9.6463    -1.5288     2.9454 C.ar    
  24 C24          -10.6294    -0.5582     2.8958 C.ar    
  25 C25          -11.9623    -0.9214     2.9442 C.ar    
  26 C26          -18.6858    -1.7194     2.8961 C.2     
  27 O27          -18.0287    -1.0881     2.0957 O.2     
  28 N28          -16.5717    -2.1118     4.0213 N.am    
  29 C29          -18.0113    -2.3791     4.0712 C.3     
  30 C30          -18.5894    -1.8182     5.3720 C.3     
  31 C31          -17.9957    -2.5748     6.5619 C.3     
  32 C32          -18.5738    -2.0138     7.8627 C.3     
  33 N33          -18.0053    -2.7382     9.0021 N.pl3   
  34 C34          -18.3791    -2.4070    10.2830 C.2     
  35 N35          -19.2392    -1.4484    10.4837 N.2     
  36 N36          -17.8457    -3.0868    11.3523 N.pl3   
  37 C37          -22.1191    -0.9204     1.9280 C.2     
  38 O38          -22.5575    -1.2335     3.0146 O.2     
  39 N39          -20.0191    -1.8309     2.7346 N.am    
  40 C40          -20.6748    -1.1895     1.5922 C.3     
  41 C41          -20.5978    -2.1136     0.3752 C.3     
  42 O42          -21.3543    -3.2991     0.6286 O.3     
  43 C43          -25.1347    -0.0033     0.0765 C.2     
  44 O44          -24.5907    -0.1588    -0.9963 O.2     
  45 N45          -22.9235    -0.3318     1.0209 N.am    
  46 C46          -24.3275    -0.0702     1.3473 C.3     
  47 C47          -24.4382     1.2615     2.0925 C.3     
  48 O48          -24.0470     2.3271     1.2245 O.3     
  49 C49          -28.4776     1.1311    -0.8725 C.2     
  50 O50          -28.6802     1.6245     0.2167 O.2     
  51 N51          -26.4610     0.2294     0.1321 N.am    
  52 C52          -27.2457     0.2944    -1.1033 C.3     
  53 C53          -27.6595    -1.1185    -1.5196 C.3     
  54 C54          -26.4128    -1.9314    -1.8743 C.3     
  55 C55          -26.8266    -3.3443    -2.2906 C.3     
  56 N56          -25.6328    -4.1227    -2.6303 N.pl3   
  57 C57          -25.7572    -5.4305    -3.0356 C.2     
  58 N58          -26.9373    -5.9778    -3.1178 N.2     
  59 N59          -24.6369    -6.1609    -3.3544 N.pl3   
  60 C60          -31.6245     1.7399    -2.6303 C.2     
  61 O61          -31.4096     0.8589    -3.4357 O.2     
  62 N62          -29.3543     1.3311    -1.8765 N.am    
  63 C63          -30.5519     2.1445    -1.6521 C.3     
  64 C64          -30.2097     3.6222    -1.8527 C.3     
  65 C65          -29.2128     4.0650    -0.7799 C.3     
  66 C66          -28.8757     5.5205    -0.9775 C.2     
  67 O67          -29.3811     6.1401    -1.8834 O.2     
  68 O68          -28.0142     6.1286    -0.1470 O.3     
  69 C69          -34.8117     3.1170    -3.7740 C.2     
  70 O70          -34.6330     4.1642    -3.1889 O.2     
  71 N71          -32.8224     2.3572    -2.6103 N.am    
  72 C72          -33.8651     1.9639    -3.5613 C.3     
  73 C73          -34.6374     0.7661    -3.0048 C.3     
  74 C74          -33.7033    -0.4417    -2.9060 C.3     
  75 C75          -34.4755    -1.6395    -2.3495 C.3     
  76 C76          -33.5414    -2.8473    -2.2507 C.3     
  77 N77          -34.2829    -3.9974    -1.7164 N.3     
  78 C78          -38.1193     3.5792    -5.2604 C.2     
  79 O79          -38.2903     2.3852    -5.3880 O.2     
  80 N80          -35.8569     2.9845    -4.6146 N.am    
  81 C81          -36.7772     4.1055    -4.8214 C.3     
  82 C82          -36.2157     5.0339    -5.9002 C.3     
  83 C83          -34.9140     5.6654    -5.4026 C.3     
  84 C84          -34.3526     6.5938    -6.4814 C.3     
  85 N85          -33.1062     7.1984    -6.0049 N.pl3   
  86 C86          -32.4160     8.0747    -6.8087 C.2     
  87 N87          -32.8707     8.3675    -7.9946 N.2     
  88 N88          -31.2463     8.6422    -6.3615 N.pl3   
  89 C89          -41.1608     4.9886    -6.7184 C.2     
  90 O90          -40.6400     6.0687    -6.9001 O.2     
  91 N91          -39.1296     4.4352    -5.5113 N.am    
  92 C92          -40.4343     3.9235    -5.9381 C.3     
  93 C93          -41.2593     3.5406    -4.7078 C.3     
  94 C94          -40.5840     2.3740    -3.9839 C.3     
  95 C95          -41.4090     1.9910    -2.7536 C.3     
  96 N96          -40.7624     0.8740    -2.0605 N.pl3   
  97 C97          -41.3257     0.3547    -0.9189 C.2     
  98 N98          -42.4350     0.8563    -0.4532 N.2     
  99 N99          -40.7190    -0.6936    -0.2685 N.pl3   
 100 C100         -44.5809     5.5367    -7.8870 C.2     
 101 O101         -45.0076     4.5939    -7.2544 O.2     
 102 N102         -42.3893     4.7408    -7.2143 N.am    
 103 C103         -43.0956     5.7762    -7.9728 C.3     
 104 C104         -42.6547     5.7259    -9.4371 C.3     
 105 O105         -43.0663     4.4860   -10.0161 O.3     
 106 C106         -47.5572     6.7526    -9.6266 C.2     
 107 O107         -46.8991     7.3288   -10.4667 O.2     
 108 N108         -45.4352     6.3701    -8.5131 N.am    
 109 C109         -46.8792     6.1373    -8.4296 C.3     
 110 C110         -47.4254     6.7747    -7.1505 C.3     
 111 C111         -49.8693     8.6245   -10.8077 C.2     
 112 O112         -49.5892     9.1916    -9.7729 O.2     
 113 N113         -48.8950     6.6625    -9.7635 N.am    
 114 C114         -49.5423     7.1634   -10.9786 C.3     
 115 C115         -50.8313     6.3784   -11.2304 C.3     
 116 C116         -50.4921     4.9459   -11.5527 C.2     
 117 O117         -49.3450     4.5700   -11.5001 O.2     
 118 O118         -51.4644     4.0874   -11.8982 O.3     
 119 C119         -51.9414    11.0876   -12.5405 C.2     
 120 O120         -52.4462    10.2450   -13.2519 O.2     
 121 N121         -50.4730     9.3011   -11.8048 N.am    
 122 C122         -50.7909    10.7215   -11.6387 C.3     
 123 C123         -49.5675    11.5641   -12.0052 C.3     
 124 C124         -53.4731    14.1808   -13.7443 C.2     
 125 O125         -52.5870    14.8662   -13.2795 O.2     
 126 N126         -52.4094    12.3514   -12.5564 N.am    
 127 C127         -53.5279    12.7073   -13.4331 C.3     
 128 C128         -54.8486    12.3829   -12.7321 C.3     
 129 C129         -54.9580    10.8933   -12.5311 C.ar    
 130 C130         -54.4690    10.3142   -11.3750 C.ar    
 131 C131         -54.5692     8.9478   -11.1907 C.ar    
 132 C132         -55.1589     8.1607   -12.1621 C.ar    
 133 C133         -55.6487     8.7400   -13.3177 C.ar    
 134 C134         -55.5523    10.1069   -13.5002 C.ar    
 135 C135         -55.0385    16.9408   -13.7418 C.2     
 136 O136         -55.5203    16.3542   -12.8017 O.2     
 137 N137         -54.4088    14.7369   -14.5391 N.am    
 138 C138         -54.3555    16.1694   -14.8416 C.3     
 139 C139         -55.0666    16.4370   -16.1696 C.3     
 140 C140         -54.9037    17.9106   -16.5475 C.3     
 141 C141         -55.5061    18.1514   -17.9331 C.3     
 142 C142         -56.5540    16.1085   -16.0270 C.3     
 143 O143         -55.1115    18.2795   -13.8065 O.3     
 144 C144          -5.8936    -5.7359     8.3542 C.2     
 145 O145          -5.5503    -4.6598     8.7959 O.2     
 146 C146           9.5122   -12.9267    16.2372 C.3     
 147 C147           8.6554   -11.6855    15.9798 C.3     
 148 C148           7.4320   -12.0741    15.1472 C.3     
 149 C149           6.5751   -10.8329    14.8898 C.3     
 150 C150           5.3517   -11.2214    14.0573 C.3     
 151 C151           4.4949    -9.9803    13.7999 C.3     
 152 C152           3.2714   -10.3688    12.9674 C.3     
 153 C153           2.4146    -9.1277    12.7100 C.3     
 154 C154           1.1911    -9.5162    11.8775 C.3     
 155 C155           0.3343    -8.2750    11.6201 C.3     
 156 C156          -0.8891    -8.6636    10.7876 C.3     
 157 C157          -1.7459    -7.4224    10.5302 C.3     
 158 C158          -2.9694    -7.8110     9.6976 C.3     
 159 C159          -3.8262    -6.5698     9.4403 C.3     
 160 C160          -5.0497    -6.9584     8.6077 C.3     
 161 H161          -7.3044    -6.6990     7.2834 H       
 162 H162          -7.8091    -3.9934     8.2593 H       
 163 H163          -7.8698    -2.9771     6.0329 H       
 164 H164          -5.4518    -3.0635     5.4906 H       
 165 H165          -5.7091    -2.9689     7.2493 H       
 166 H166          -5.2786    -4.5227     6.4952 H       
 167 H167          -7.1598    -4.3163     4.1868 H       
 168 H168          -9.9752    -3.1962     6.8646 H       
 169 H169         -11.6134    -5.4913     6.1054 H       
 170 H170         -13.3846    -4.9181     7.7900 H       
 171 H171         -10.6527    -5.6268     8.9527 H       
 172 H172         -12.2247    -5.9584     9.7191 H       
 173 H173         -11.7877    -6.7710     8.1969 H       
 174 H174         -12.7387    -2.6012     8.2513 H       
 175 H175         -12.6614    -3.5405     9.7613 H       
 176 H176         -11.1645    -3.1358     8.8873 H       
 177 H177         -13.9089    -4.6177     5.3797 H       
 178 H178         -14.0201    -1.7200     5.0351 H       
 179 H179         -13.8903    -3.6382     2.6659 H       
 180 H180         -14.3611    -1.9252     2.5544 H       
 181 H181         -11.6022    -4.2670     3.1794 H       
 182 H182          -9.2281    -3.6206     3.0859 H       
 183 H183          -8.6050    -1.2452     2.9049 H       
 184 H184         -10.3561     0.4836     2.8166 H       
 185 H185         -12.7304    -0.1634     2.9017 H       
 186 H186         -16.2400    -1.3265     3.5586 H       
 187 H187         -18.1827    -3.4549     4.0315 H       
 188 H188         -18.3407    -0.7600     5.4535 H       
 189 H189         -19.6728    -1.9376     5.3693 H       
 190 H190         -18.2444    -3.6329     6.4804 H       
 191 H191         -16.9123    -2.4553     6.5645 H       
 192 H192         -18.3251    -0.9557     7.9443 H       
 193 H193         -19.6572    -2.1332     7.8601 H       
 194 H194         -17.3653    -3.4516     8.8528 H       
 195 H195         -19.5029    -1.2146    11.3874 H       
 196 H196         -17.2056    -3.8002    11.2030 H       
 197 H197         -18.1094    -2.8531    12.2561 H       
 198 H198         -20.5447    -2.3358     3.3747 H       
 199 H199         -20.1729    -0.2487     1.3664 H       
 200 H200         -21.0059    -1.6015    -0.4962 H       
 201 H201         -19.5578    -2.3797     0.1862 H       
 202 H202         -21.3501    -3.9322    -0.1024 H       
 203 H203         -22.5728    -0.0814     0.1518 H       
 204 H204         -24.7093    -0.8726     1.9785 H       
 205 H205         -25.4688     1.4138     2.4132 H       
 206 H206         -23.7849     1.2451     2.9649 H       
 207 H207         -24.0927     3.2030     1.6316 H       
 208 H208         -26.8961     0.3538     0.9901 H       
 209 H209         -26.6437     0.7442    -1.8929 H       
 210 H210         -28.1854    -1.6008    -0.6956 H       
 211 H211         -28.3166    -1.0638    -2.3876 H       
 212 H212         -25.8869    -1.4492    -2.6983 H       
 213 H213         -25.7557    -1.9861    -1.0064 H       
 214 H214         -27.3524    -3.8266    -1.4666 H       
 215 H215         -27.4837    -3.2896    -3.1586 H       
 216 H216         -24.7546    -3.7153    -2.5691 H       
 217 H217         -27.0250    -6.9005    -3.4038 H       
 218 H218         -23.7587    -5.7535    -3.2932 H       
 219 H219         -24.7247    -7.0836    -3.6404 H       
 220 H220         -29.1923     0.9365    -2.7476 H       
 221 H221         -30.9109     1.9896    -0.6346 H       
 222 H222         -29.7679     3.7621    -2.8392 H       
 223 H223         -31.1180     4.2195    -1.7733 H       
 224 H224         -29.6546     3.9251     0.2067 H       
 225 H225         -28.3045     3.4677    -0.8592 H       
 226 H226         -27.8292     7.0630    -0.3136 H       
 227 H227         -32.9942     3.0618    -1.9662 H       
 228 H228         -33.4060     1.6907    -4.5113 H       
 229 H229         -35.0219     1.0099    -2.0145 H       
 230 H230         -35.4684     0.5292    -3.6691 H       
 231 H231         -33.3187    -0.6856    -3.8963 H       
 232 H232         -32.8722    -0.2048    -2.2417 H       
 233 H233         -34.8601    -1.3956    -1.3592 H       
 234 H234         -35.3066    -1.8764    -3.0138 H       
 235 H235         -33.1569    -3.0911    -3.2410 H       
 236 H236         -32.7104    -2.6104    -1.5864 H       
 237 H237         -33.6874    -4.8084    -1.6415 H       
 238 H238         -34.7040    -3.7745    -0.8270 H       
 239 H239         -35.9998     2.1470    -5.0825 H       
 240 H240         -36.8911     4.6588    -3.8892 H       
 241 H241         -36.0184     4.4607    -6.8061 H       
 242 H242         -36.9405     5.8186    -6.1174 H       
 243 H243         -35.1113     6.2386    -4.4967 H       
 244 H244         -34.1893     4.8807    -5.1854 H       
 245 H245         -34.1553     6.0206    -7.3873 H       
 246 H246         -35.0773     7.3785    -6.6986 H       
 247 H247         -32.7678     6.9806    -5.1223 H       
 248 H248         -32.3838     8.9857    -8.5617 H       
 249 H249         -30.9080     8.4243    -5.4789 H       
 250 H250         -30.7594     9.2604    -6.9286 H       
 251 H251         -38.9929     5.3901    -5.4093 H       
 252 H252         -40.2919     3.0453    -6.5678 H       
 253 H253         -41.3266     4.3955    -4.0350 H       
 254 H254         -42.2607     3.2439    -5.0197 H       
 255 H255         -40.5167     1.5190    -4.6567 H       
 256 H256         -39.5826     2.6706    -3.6720 H       
 257 H257         -41.4763     2.8460    -2.0808 H       
 258 H258         -42.4104     1.6944    -3.0655 H       
 259 H259         -39.9369     0.5007    -2.4070 H       
 260 H260         -42.8324     0.4899     0.3522 H       
 261 H261         -39.8935    -1.0669    -0.6150 H       
 262 H262         -41.1164    -1.0599     0.5370 H       
 263 H263         -42.8058     3.8769    -7.0690 H       
 264 H264         -42.8608     6.7557    -7.5562 H       
 265 H265         -43.1119     6.5513    -9.9828 H       
 266 H266         -41.5694     5.8103    -9.4928 H       
 267 H267         -42.8196     4.3849   -10.9456 H       
 268 H268         -45.0940     7.1242    -9.0190 H       
 269 H269         -47.0739     5.0650    -8.4131 H       
 270 H270         -47.2307     7.8470    -7.1670 H       
 271 H271         -48.4998     6.6014    -7.0884 H       
 272 H272         -46.9350     6.3296    -6.2847 H       
 273 H273         -49.4292     6.2660    -9.0576 H       
 274 H274         -48.8692     7.0384   -11.8268 H       
 275 H275         -51.4571     6.4118   -10.3386 H       
 276 H276         -51.3689     6.8219   -12.0684 H       
 277 H277         -51.1982     3.1790   -12.0959 H       
 278 H278         -50.6971     8.8475   -12.6325 H       
 279 H279         -51.0667    10.9132   -10.6018 H       
 280 H280         -49.8040    12.6209   -11.8816 H       
 281 H281         -48.7353    11.2993   -11.3529 H       
 282 H282         -49.2917    11.3724   -13.0421 H       
 283 H283         -52.0057    13.0253   -11.9875 H       
 284 H284         -53.4589    12.1374   -14.3597 H       
 285 H285         -54.8787    12.8833   -11.7642 H       
 286 H286         -55.6803    12.7287   -13.3459 H       
 287 H287         -54.0083    10.9291   -10.6161 H       
 288 H288         -54.1866     8.4953   -10.2878 H       
 289 H289         -55.2366     7.0932   -12.0184 H       
 290 H290         -56.1090     8.1250   -14.0768 H       
 291 H291         -55.9383    10.5599   -14.4014 H       
 292 H292         -55.1175    14.1888   -14.9108 H       
 293 H293         -53.3153    16.4866   -14.9160 H       
 294 H294         -54.6294    15.8118   -16.9482 H       
 295 H295         -55.4178    18.5325   -15.8147 H       
 296 H296         -53.8443    18.1669   -16.5623 H       
 297 H297         -56.5654    17.8951   -17.9183 H       
 298 H298         -55.3900    19.2012   -18.2023 H       
 299 H299         -54.9919    17.5294   -18.6659 H       
 300 H300         -56.9912    16.7336   -15.2484 H       
 301 H301         -57.0606    16.2991   -16.9731 H       
 302 H302         -56.6701    15.0586   -15.7578 H       
 303 H303         -55.5592    18.7305   -13.0776 H       
 304 H304           8.9246   -13.6679    16.7789 H       
 305 H305           9.8386   -13.3465    15.2857 H       
 306 H306          10.3838   -12.6499    16.8303 H       
 307 H307           8.3290   -11.2656    16.9312 H       
 308 H308           9.2430   -10.9443    15.4380 H       
 309 H309           7.7584   -12.4939    14.1958 H       
 310 H310           6.8444   -12.8152    15.6890 H       
 311 H311           6.2487   -10.4130    15.8413 H       
 312 H312           7.1627   -10.0917    14.3481 H       
 313 H313           5.6781   -11.6413    13.1059 H       
 314 H314           4.7641   -11.9626    14.5990 H       
 315 H315           4.1685    -9.5604    14.7514 H       
 316 H316           5.0825    -9.2391    13.2582 H       
 317 H317           3.5978   -10.7887    12.0159 H       
 318 H318           2.6838   -11.1100    13.5091 H       
 319 H319           2.0882    -8.7078    13.6615 H       
 320 H320           3.0022    -8.3865    12.1683 H       
 321 H321           1.5176    -9.9361    10.9260 H       
 322 H322           0.6035   -10.2574    12.4192 H       
 323 H323           0.0079    -7.8552    12.5715 H       
 324 H324           0.9219    -7.5339    11.0784 H       
 325 H325          -0.5627    -9.0835     9.8361 H       
 326 H326          -1.4767    -9.4048    11.3293 H       
 327 H327          -2.0724    -7.0026    11.4816 H       
 328 H328          -1.1583    -6.6812     9.9884 H       
 329 H329          -2.6430    -8.2308     8.7462 H       
 330 H330          -3.5570    -8.5522    10.2394 H       
 331 H331          -4.1526    -6.1500    10.3917 H       
 332 H332          -3.2386    -5.8286     8.8985 H       
 333 H333          -5.6373    -7.6996     9.1495 H       
 334 H334          -4.7233    -7.3782     7.6563 H       
@<TRIPOS>BOND
   1    1    2 2
   2    1    4 1
   3    1   10 am
   4    3  144 am
   5    3    4 1
   6    3  161 1
   7    4    5 1
   8    4  162 1
   9    5    6 1
  10    5    7 1
  11    5  163 1
  12    6  164 1
  13    6  165 1
  14    6  166 1
  15    7  167 1
  16    8    9 2
  17    8   11 1
  18    8   17 am
  19   10   11 1
  20   10  168 1
  21   11   12 1
  22   11  169 1
  23   12   13 1
  24   12   14 1
  25   12  170 1
  26   13  171 1
  27   13  172 1
  28   13  173 1
  29   14  174 1
  30   14  175 1
  31   14  176 1
  32   15   16 2
  33   15   18 1
  34   15   28 am
  35   17   18 1
  36   17  177 1
  37   18   19 1
  38   18  178 1
  39   19   20 1
  40   19  179 1
  41   19  180 1
  42   20   21 ar
  43   20   25 ar
  44   21   22 ar
  45   21  181 1
  46   22   23 ar
  47   22  182 1
  48   23   24 ar
  49   23  183 1
  50   24   25 ar
  51   24  184 1
  52   25  185 1
  53   26   27 2
  54   26   29 1
  55   26   39 am
  56   28   29 1
  57   28  186 1
  58   29   30 1
  59   29  187 1
  60   30   31 1
  61   30  188 1
  62   30  189 1
  63   31   32 1
  64   31  190 1
  65   31  191 1
  66   32   33 1
  67   32  192 1
  68   32  193 1
  69   33   34 1
  70   33  194 1
  71   34   35 2
  72   34   36 1
  73   35  195 1
  74   36  196 1
  75   36  197 1
  76   37   38 2
  77   37   40 1
  78   37   45 am
  79   39   40 1
  80   39  198 1
  81   40   41 1
  82   40  199 1
  83   41   42 1
  84   41  200 1
  85   41  201 1
  86   42  202 1
  87   43   44 2
  88   43   46 1
  89   43   51 am
  90   45   46 1
  91   45  203 1
  92   46   47 1
  93   46  204 1
  94   47   48 1
  95   47  205 1
  96   47  206 1
  97   48  207 1
  98   49   50 2
  99   49   52 1
 100   49   62 am
 101   51   52 1
 102   51  208 1
 103   52   53 1
 104   52  209 1
 105   53   54 1
 106   53  210 1
 107   53  211 1
 108   54   55 1
 109   54  212 1
 110   54  213 1
 111   55   56 1
 112   55  214 1
 113   55  215 1
 114   56   57 1
 115   56  216 1
 116   57   58 2
 117   57   59 1
 118   58  217 1
 119   59  218 1
 120   59  219 1
 121   60   61 2
 122   60   63 1
 123   60   71 am
 124   62   63 1
 125   62  220 1
 126   63   64 1
 127   63  221 1
 128   64   65 1
 129   64  222 1
 130   64  223 1
 131   65   66 1
 132   65  224 1
 133   65  225 1
 134   66   67 2
 135   66   68 1
 136   68  226 1
 137   69   70 2
 138   69   72 1
 139   69   80 am
 140   71   72 1
 141   71  227 1
 142   72   73 1
 143   72  228 1
 144   73   74 1
 145   73  229 1
 146   73  230 1
 147   74   75 1
 148   74  231 1
 149   74  232 1
 150   75   76 1
 151   75  233 1
 152   75  234 1
 153   76   77 1
 154   76  235 1
 155   76  236 1
 156   77  237 1
 157   77  238 1
 158   78   79 2
 159   78   81 1
 160   78   91 am
 161   80   81 1
 162   80  239 1
 163   81   82 1
 164   81  240 1
 165   82   83 1
 166   82  241 1
 167   82  242 1
 168   83   84 1
 169   83  243 1
 170   83  244 1
 171   84   85 1
 172   84  245 1
 173   84  246 1
 174   85   86 1
 175   85  247 1
 176   86   87 2
 177   86   88 1
 178   87  248 1
 179   88  249 1
 180   88  250 1
 181   89   90 2
 182   89   92 1
 183   89  102 am
 184   91   92 1
 185   91  251 1
 186   92   93 1
 187   92  252 1
 188   93   94 1
 189   93  253 1
 190   93  254 1
 191   94   95 1
 192   94  255 1
 193   94  256 1
 194   95   96 1
 195   95  257 1
 196   95  258 1
 197   96   97 1
 198   96  259 1
 199   97   98 2
 200   97   99 1
 201   98  260 1
 202   99  261 1
 203   99  262 1
 204  100  101 2
 205  100  103 1
 206  100  108 am
 207  102  103 1
 208  102  263 1
 209  103  104 1
 210  103  264 1
 211  104  105 1
 212  104  265 1
 213  104  266 1
 214  105  267 1
 215  106  107 2
 216  106  109 1
 217  106  113 am
 218  108  109 1
 219  108  268 1
 220  109  110 1
 221  109  269 1
 222  110  270 1
 223  110  271 1
 224  110  272 1
 225  111  112 2
 226  111  114 1
 227  111  121 am
 228  113  114 1
 229  113  273 1
 230  114  115 1
 231  114  274 1
 232  115  116 1
 233  115  275 1
 234  115  276 1
 235  116  117 2
 236  116  118 1
 237  118  277 1
 238  119  120 2
 239  119  122 1
 240  119  126 am
 241  121  122 1
 242  121  278 1
 243  122  123 1
 244  122  279 1
 245  123  280 1
 246  123  281 1
 247  123  282 1
 248  124  125 2
 249  124  127 1
 250  124  137 am
 251  126  127 1
 252  126  283 1
 253  127  128 1
 254  127  284 1
 255  128  129 1
 256  128  285 1
 257  128  286 1
 258  129  130 ar
 259  129  134 ar
 260  130  131 ar
 261  130  287 1
 262  131  132 ar
 263  131  288 1
 264  132  133 ar
 265  132  289 1
 266  133  134 ar
 267  133  290 1
 268  134  291 1
 269  135  136 2
 270  135  138 1
 271  135  143 1
 272  137  138 1
 273  137  292 1
 274  138  139 1
 275  138  293 1
 276  139  140 1
 277  139  142 1
 278  139  294 1
 279  140  141 1
 280  140  295 1
 281  140  296 1
 282  141  297 1
 283  141  298 1
 284  141  299 1
 285  142  300 1
 286  142  301 1
 287  142  302 1
 288  143  303 1
 289  144  145 2
 290  144  160 1
 291  146  147 1
 292  146  304 1
 293  146  305 1
 294  146  306 1
 295  147  148 1
 296  147  307 1
 297  147  308 1
 298  148  149 1
 299  148  309 1
 300  148  310 1
 301  149  150 1
 302  149  311 1
 303  149  312 1
 304  150  151 1
 305  150  313 1
 306  150  314 1
 307  151  152 1
 308  151  315 1
 309  151  316 1
 310  152  153 1
 311  152  317 1
 312  152  318 1
 313  153  154 1
 314  153  319 1
 315  153  320 1
 316  154  155 1
 317  154  321 1
 318  154  322 1
 319  155  156 1
 320  155  323 1
 321  155  324 1
 322  156  157 1
 323  156  325 1
 324  156  326 1
 325  157  158 1
 326  157  327 1
 327  157  328 1
 328  158  159 1
 329  158  329 1
 330  158  330 1
 331  159  160 1
 332  159  331 1
 333  159  332 1
 334  160  333 1
 335  160  334 1

#	End of record

