#	Name: ASD01900557
#	Creating user name:	WinNT
#	Creation time:	15. 06. 2019 19:52

#	Modifying user name:	WinNT
#	Modification time:	15. 06. 2019 19:52

#	Program:	/corina/corina34_cracker 3.40 0067  02.08.2006

@<TRIPOS>MOLECULE
ASD01900557
  44   48    0    0    0
SMALL
NO_CHARGES


@<TRIPOS>ATOM
   1 C1            -0.0002     1.3715     0.2517 C.ar    
   2 C2             0.0213    -0.0086     0.2376 C.ar    
   3 C3             1.2113    -0.6826    -0.0062 C.ar    
   4 C4             2.3795     0.0322    -0.2362 C.ar    
   5 C5             2.3577     1.4134    -0.2225 C.ar    
   6 C6             1.1672     2.0867     0.0218 C.ar    
   7 N7             1.1449     3.4899     0.0362 N.am    
   8 C8             1.3554     4.2052     1.1469 C.2     
   9 C9             1.2631     5.6788     0.8224 C.3     
  10 C10            0.9169     4.2209    -1.0606 C.2     
  11 C11            2.2500     6.3081    -1.3223 C.3     
  12 C12            0.9567     5.6895    -0.7046 C.3     
  13 C13            2.6966     6.2905     0.9112 C.3     
  14 C14            3.5915     5.2473     0.2311 C.2     
  15 C15            3.3324     5.2556    -1.0611 C.2     
  16 O16            0.7077     3.7746    -2.1682 O.2     
  17 O17            1.5847     3.7432     2.2440 O.2     
  18 N18            1.2329    -2.0817    -0.0195 N.am    
  19 C19            0.1795    -2.7674    -0.5060 C.2     
  20 C20            0.2433    -4.2432    -0.6159 C.ar    
  21 O21           -0.8227    -2.1748    -0.8545 O.2     
  22 N22            1.3405    -4.8848    -0.2337 N.ar    
  23 C23            1.4379    -6.1939    -0.3148 C.ar    
  24 C24            0.3905    -6.9564    -0.8060 C.ar    
  25 C25           -0.7744    -6.3267    -1.2165 C.ar    
  26 C26           -0.8511    -4.9468    -1.1144 C.ar    
  27 C27            2.6205     7.3662    -0.2329 C.3     
  28 Cl28           3.8178     2.3077    -0.5094 Cl      
  29 H29           -0.9264     1.8951     0.4372 H       
  30 H30           -0.8872    -0.5645     0.4165 H       
  31 H31            3.3049    -0.4916    -0.4254 H       
  32 H32            0.5295     6.2091     1.4296 H       
  33 H33            2.1714     6.6618    -2.3503 H       
  34 H34            0.0483     6.2250    -0.9805 H       
  35 H35            3.0150     6.6309     1.8965 H       
  36 H36            4.3115     4.6132     0.7269 H       
  37 H37            3.8046     4.6361    -1.8092 H       
  38 H38            2.0061    -2.5581     0.3214 H       
  39 H39            2.3469    -6.6813     0.0055 H       
  40 H40            0.4807    -8.0308    -0.8688 H       
  41 H41           -1.6047    -6.8989    -1.6032 H       
  42 H42           -1.7434    -4.4234    -1.4248 H       
  43 H43            3.5832     7.8410    -0.4223 H       
  44 H44            1.8269     8.0959    -0.0726 H       
@<TRIPOS>BOND
   1    1    2 ar
   2    1    6 ar
   3    1   29 1
   4    2    3 ar
   5    2   30 1
   6    3    4 ar
   7    3   18 1
   8    4    5 ar
   9    4   31 1
  10    5    6 ar
  11    5   28 1
  12    6    7 1
  13    7    8 am
  14    7   10 am
  15    8   17 2
  16    8    9 1
  17    9   13 1
  18    9   12 1
  19    9   32 1
  20   10   16 2
  21   10   12 1
  22   11   12 1
  23   11   15 1
  24   11   27 1
  25   11   33 1
  26   12   34 1
  27   13   14 1
  28   13   27 1
  29   13   35 1
  30   14   15 2
  31   14   36 1
  32   15   37 1
  33   18   19 am
  34   18   38 1
  35   19   20 1
  36   19   21 2
  37   20   22 ar
  38   20   26 ar
  39   22   23 ar
  40   23   24 ar
  41   23   39 1
  42   24   25 ar
  43   24   40 1
  44   25   26 ar
  45   25   41 1
  46   26   42 1
  47   27   43 1
  48   27   44 1

#	End of record

