#	Name: ASD03092274
#	Creating user name:	WinNT
#	Creation time:	15. 06. 2019 20:32

#	Modifying user name:	WinNT
#	Modification time:	15. 06. 2019 20:32

#	Program:	/corina/corina34_cracker 3.40 0067  02.08.2006

@<TRIPOS>MOLECULE
ASD03092274
  39   41    0    0    0
SMALL
NO_CHARGES


@<TRIPOS>ATOM
   1 F1             0.0021    -0.0041     0.0020 F       
   2 C2            -0.0169     1.3948     0.0097 C.3     
   3 F3             1.2956     1.8790    -0.0002 F       
   4 F4            -0.6935     1.8582    -1.1237 F       
   5 C5            -0.7223     1.8808     1.2496 C.2     
   6 C6            -2.0406     2.1139     1.3453 C.2     
   7 C7            -2.2947     2.5686     2.7152 C.ar    
   8 C8            -3.4416     2.9562     3.4103 C.ar    
   9 C9            -3.3499     3.3418     4.7309 C.ar    
  10 C10           -4.5923     3.7585     5.4752 C.3     
  11 N11           -5.1964     2.5857     6.1122 N.am    
  12 C12           -6.3247     2.7189     6.8372 C.2     
  13 O13           -6.8410     3.8121     6.9625 O.2     
  14 C14           -6.9343     1.5353     7.4801 C.ar    
  15 C15           -8.1092     1.6593     8.2309 C.ar    
  16 C16           -8.6396     0.5206     8.8117 C.ar    
  17 C17           -7.9982    -0.6918     8.6336 C.ar    
  18 N18           -6.8912    -0.7786     7.9207 N.ar    
  19 C19           -6.3513     0.2747     7.3438 C.ar    
  20 C20           -8.5727    -1.9339     9.2646 C.3     
  21 F21           -9.4671    -2.5381     8.3745 F       
  22 F22           -7.5377    -2.8266     9.5634 F       
  23 F23           -9.2465    -1.5903    10.4415 F       
  24 C24           -2.1275     3.3491     5.3789 C.ar    
  25 C25           -0.9684     2.9665     4.7065 C.ar    
  26 C26            0.2935     2.9759     5.3833 C.1     
  27 N27            1.2946     2.9833     5.9201 N.1     
  28 C28           -1.0459     2.5711     3.3607 C.ar    
  29 N29           -0.1148     2.1445     2.4474 N.pl3   
  30 H30            0.8340     2.0468     2.6239 H       
  31 H31           -2.7741     1.9903     0.5623 H       
  32 H32           -4.4006     2.9544     2.9135 H       
  33 H33           -4.3301     4.4916     6.2380 H       
  34 H34           -5.3036     4.1993     4.7767 H       
  35 H35           -4.7843     1.7133     6.0122 H       
  36 H36           -8.5893     2.6189     8.3540 H       
  37 H37           -9.5447     0.5781     9.3982 H       
  38 H38           -5.4471     0.1628     6.7639 H       
  39 H39           -2.0712     3.6540     6.4135 H       
@<TRIPOS>BOND
   1    1    2 1
   2    2    3 1
   3    2    4 1
   4    2    5 1
   5    5   29 1
   6    5    6 2
   7    6    7 1
   8    6   31 1
   9    7   28 ar
  10    7    8 ar
  11    8    9 ar
  12    8   32 1
  13    9   10 1
  14    9   24 ar
  15   10   11 1
  16   10   33 1
  17   10   34 1
  18   11   12 am
  19   11   35 1
  20   12   13 2
  21   12   14 1
  22   14   19 ar
  23   14   15 ar
  24   15   16 ar
  25   15   36 1
  26   16   17 ar
  27   16   37 1
  28   17   18 ar
  29   17   20 1
  30   18   19 ar
  31   19   38 1
  32   20   21 1
  33   20   22 1
  34   20   23 1
  35   24   25 ar
  36   24   39 1
  37   25   26 1
  38   25   28 ar
  39   26   27 3
  40   28   29 1
  41   29   30 1

#	End of record

