#	Name: ASD01180181
#	Creating user name:	WinNT
#	Creation time:	15. 06. 2019 19:06

#	Modifying user name:	WinNT
#	Modification time:	15. 06. 2019 19:06

#	Program:	/corina/corina34_cracker 3.40 0067  02.08.2006

@<TRIPOS>MOLECULE
ASD01180181
  65   68    0    0    0
SMALL
NO_CHARGES


@<TRIPOS>ATOM
   1 C1             0.0439     1.2964     1.1354 C.ar    
   2 C2             0.0572    -0.0677     0.9256 C.ar    
   3 C3             1.2719    -0.7450     0.8405 C.ar    
   4 C4             2.4671    -0.0403     0.9680 C.ar    
   5 C5             2.4421     1.3237     1.1775 C.ar    
   6 C6             1.2334     1.9910     1.2612 C.ar    
   7 C7             1.2125     3.4804     1.4901 C.3     
   8 F8             1.2266     4.1419     0.2575 F       
   9 F9             0.0537     3.8280     2.1927 F       
  10 F10            2.3377     3.8539     2.2328 F       
  11 C11            1.2925    -2.2117     0.6156 C.ar    
  12 C12            2.5072    -2.8890     0.5306 C.ar    
  13 C13            2.5205    -4.2532     0.3212 C.ar    
  14 C14            1.3310    -4.9478     0.1954 C.ar    
  15 C15            0.1223    -4.2804     0.2789 C.ar    
  16 C16            0.0972    -2.9173     0.4943 C.ar    
  17 C17            1.3519    -6.4370    -0.0341 C.3     
  18 C18            1.0866    -7.1605     1.2876 C.3     
  19 N19            0.3146    -6.7963    -1.0043 N.pl3   
  20 C20            0.5833    -6.7315    -2.3610 C.ar    
  21 N21           -0.3237    -7.1599    -3.2283 N.ar    
  22 C22           -0.1115    -7.1174    -4.5271 C.ar    
  23 C23            1.0880    -6.6150    -5.0333 C.ar    
  24 C24            2.0658    -6.1546    -4.1379 C.ar    
  25 C25            1.8012    -6.2115    -2.7963 C.ar    
  26 C26            1.3251    -6.5688    -6.4888 C.2     
  27 N27            0.3797    -7.0138    -7.3400 N.am    
  28 O28            2.3734    -6.1292    -6.9204 O.2     
  29 C29            0.6151    -6.9679    -8.7853 C.3     
  30 C30           -0.6053    -7.5280    -9.5188 C.3     
  31 C31           -0.3631    -7.4809   -11.0054 C.2     
  32 O32           -1.3047    -7.9241   -11.8532 O.3     
  33 O33            0.6786    -7.0441   -11.4343 O.2     
  34 C34            1.0581    -8.6819     1.0593 C.3     
  35 C35            2.1900    -9.2783     1.9213 C.3     
  36 C36            2.4135    -8.2259     3.0355 C.3     
  37 C37            2.2348    -6.8854     2.2804 C.3     
  38 H38           -0.8969     1.8231     1.1969 H       
  39 H39           -0.8721    -0.6091     0.8279 H       
  40 H40            3.4114    -0.5605     0.9032 H       
  41 H41            3.3679     1.8709     1.2765 H       
  42 H42            3.4366    -2.3475     0.6280 H       
  43 H43            3.4614    -4.7792     0.2551 H       
  44 H44           -0.8035    -4.8276     0.1800 H       
  45 H45           -0.8471    -2.3972     0.5594 H       
  46 H46            2.3279    -6.7315    -0.4200 H       
  47 H47            0.1385    -6.8286     1.7108 H       
  48 H48           -0.5604    -7.0795    -0.6961 H       
  49 H49           -0.8717    -7.4746    -5.2061 H       
  50 H50            3.0040    -5.7603    -4.4995 H       
  51 H51            2.5328    -5.8652    -2.0813 H       
  52 H52           -0.4566    -7.3645    -6.9957 H       
  53 H53            0.7823    -5.9359    -9.0936 H       
  54 H54            1.4924    -7.5668    -9.0297 H       
  55 H55           -0.7724    -8.5601    -9.2104 H       
  56 H56           -1.4826    -6.9292    -9.2744 H       
  57 H57           -1.1039    -7.8736   -12.7978 H       
  58 H58            0.0965    -9.0886     1.3725 H       
  59 H59            1.2333    -8.9049     0.0068 H       
  60 H60            1.8801   -10.2303     2.3523 H       
  61 H61            3.0956    -9.4038     1.3279 H       
  62 H62            1.6647    -8.3297     3.8208 H       
  63 H63            3.4197    -8.3065     3.4467 H       
  64 H64            3.1477    -6.6245     1.7451 H       
  65 H65            1.9577    -6.0911     2.9736 H       
@<TRIPOS>BOND
   1    1    2 ar
   2    1    6 ar
   3    1   38 1
   4    2    3 ar
   5    2   39 1
   6    3    4 ar
   7    3   11 1
   8    4    5 ar
   9    4   40 1
  10    5    6 ar
  11    5   41 1
  12    6    7 1
  13    7    8 1
  14    7    9 1
  15    7   10 1
  16   11   12 ar
  17   11   16 ar
  18   12   13 ar
  19   12   42 1
  20   13   14 ar
  21   13   43 1
  22   14   15 ar
  23   14   17 1
  24   15   16 ar
  25   15   44 1
  26   16   45 1
  27   17   18 1
  28   17   19 1
  29   17   46 1
  30   18   34 1
  31   18   37 1
  32   18   47 1
  33   19   20 1
  34   19   48 1
  35   20   21 ar
  36   20   25 ar
  37   21   22 ar
  38   22   23 ar
  39   22   49 1
  40   23   24 ar
  41   23   26 1
  42   24   25 ar
  43   24   50 1
  44   25   51 1
  45   26   27 am
  46   26   28 2
  47   27   29 1
  48   27   52 1
  49   29   30 1
  50   29   53 1
  51   29   54 1
  52   30   31 1
  53   30   55 1
  54   30   56 1
  55   31   32 1
  56   31   33 2
  57   32   57 1
  58   34   35 1
  59   34   58 1
  60   34   59 1
  61   35   36 1
  62   35   60 1
  63   35   61 1
  64   36   37 1
  65   36   62 1
  66   36   63 1
  67   37   64 1
  68   37   65 1

#	End of record

