#	Name: ASD01916201
#	Creating user name:	WinNT
#	Creation time:	15. 06. 2019 20:06

#	Modifying user name:	WinNT
#	Modification time:	15. 06. 2019 20:06

#	Program:	/corina/corina34_cracker 3.40 0067  02.08.2006

@<TRIPOS>MOLECULE
ASD01916201
  42   44    0    0    0
SMALL
NO_CHARGES


@<TRIPOS>ATOM
   1 C1            -0.3861     1.7165     0.1126 C.ar    
   2 C2            -0.5127     0.3658     0.3821 C.ar    
   3 N3             0.5340    -0.3599     0.7136 N.ar    
   4 C4             1.7501     0.1666     0.8036 C.ar    
   5 C5             1.9574     1.5182     0.5475 C.ar    
   6 C6             0.8696     2.3125     0.1943 C.ar    
   7 C7            -1.8694    -0.2845     0.2952 C.3     
   8 O8             1.0295     3.6355    -0.0641 O.3     
   9 C9             2.2791     4.1595     0.0402 C.ar    
  10 C10            3.2185     3.9707    -0.9684 C.ar    
  11 N11            4.4242     4.4969    -0.8294 N.ar    
  12 C12            4.7394     5.1911     0.2456 C.ar    
  13 N13            3.8776     5.3919     1.2222 N.ar    
  14 C14            2.6501     4.9034     1.1557 C.ar    
  15 C15            2.8960    -0.6932     1.1807 C.2     
  16 N16            2.7019    -2.0033     1.4306 N.am    
  17 O17            4.0109    -0.2172     1.2647 O.2     
  18 C18            3.7921    -2.8334     1.6818 C.ar    
  19 C19            3.5971    -4.2026     1.8231 C.ar    
  20 C20            4.6888    -5.0158     2.0724 C.ar    
  21 C21            5.9427    -4.4289     2.1721 C.ar    
  22 C22            6.0632    -3.0613     2.0207 C.ar    
  23 N23            5.0052    -2.3119     1.7783 N.ar    
  24 C24            7.1600    -5.2750     2.4431 C.3     
  25 C25           -1.8034    -1.4762    -0.6620 C.3     
  26 H26           -1.2512     2.3016    -0.1625 H       
  27 H27            2.9468     1.9449     0.6218 H       
  28 H28           -2.1711    -0.6292     1.2843 H       
  29 H29           -2.5961     0.4389    -0.0747 H       
  30 H30            2.9672     3.4026    -1.8518 H       
  31 H31            5.7325     5.6072     0.3286 H       
  32 H32            1.9474     5.0760     1.9575 H       
  33 H33            1.8032    -2.3682     1.4356 H       
  34 H34            2.6070    -4.6259     1.7399 H       
  35 H35            4.5679    -6.0828     2.1872 H       
  36 H36            7.0367    -2.6002     2.0978 H       
  37 H37            7.5920    -5.6034     1.4978 H       
  38 H38            7.8949    -4.6883     2.9941 H       
  39 H39            6.8734    -6.1454     3.0334 H       
  40 H40           -1.5018    -1.1315    -1.6511 H       
  41 H41           -1.0768    -2.1996    -0.2921 H       
  42 H42           -2.7847    -1.9466    -0.7248 H       
@<TRIPOS>BOND
   1    1    2 ar
   2    1    6 ar
   3    1   26 1
   4    2    3 ar
   5    2    7 1
   6    3    4 ar
   7    4    5 ar
   8    4   15 1
   9    5    6 ar
  10    5   27 1
  11    6    8 1
  12    7   25 1
  13    7   28 1
  14    7   29 1
  15    8    9 1
  16    9   10 ar
  17    9   14 ar
  18   10   11 ar
  19   10   30 1
  20   11   12 ar
  21   12   13 ar
  22   12   31 1
  23   13   14 ar
  24   14   32 1
  25   15   16 am
  26   15   17 2
  27   16   18 1
  28   16   33 1
  29   18   19 ar
  30   18   23 ar
  31   19   20 ar
  32   19   34 1
  33   20   21 ar
  34   20   35 1
  35   21   22 ar
  36   21   24 1
  37   22   23 ar
  38   22   36 1
  39   24   37 1
  40   24   38 1
  41   24   39 1
  42   25   40 1
  43   25   41 1
  44   25   42 1

#	End of record

