#	Name: ASD03240467
#	Creating user name:	WinNT
#	Creation time:	15. 06. 2019 20:35

#	Modifying user name:	WinNT
#	Modification time:	15. 06. 2019 20:35

#	Program:	/corina/corina34_cracker 3.40 0067  02.08.2006

@<TRIPOS>MOLECULE
ASD03240467
  89   95    0    0    0
SMALL
NO_CHARGES


@<TRIPOS>ATOM
   1 C1            -2.9305     1.2532    -4.5153 C.ar    
   2 C2            -3.8699     4.3279    -2.9240 C.ar    
   3 C3            -4.1303     3.4581    -3.9907 C.ar    
   4 C4            -4.0033     1.9940    -3.8129 C.2     
   5 C5            -4.0019     5.6855    -3.1365 C.ar    
   6 C6            -4.3872     6.1431    -4.3967 C.ar    
   7 N7            -4.6259     5.2913    -5.3859 N.ar    
   8 C8            -4.5114     3.9902    -5.2224 C.ar    
   9 C9            -4.5319     7.5997    -4.6339 C.2     
  10 C10           -4.3215     8.5914    -3.7192 C.2     
  11 N11           -4.5592     9.7679    -4.3317 N.pl3   
  12 N12           -4.9260     9.5058    -5.6572 N.2     
  13 C13           -4.9059     8.2133    -5.8463 C.2     
  14 C14           -3.2543     0.3067    -5.4876 C.ar    
  15 C15           -4.8658     1.3339    -3.0102 C.2     
  16 N16           -5.9699     1.9847    -2.5013 N.pl3   
  17 C17           -6.6130     1.4913    -1.2809 C.3     
  18 C18           -1.5922     1.5035    -4.2112 C.ar    
  19 C19           -0.5968     0.8144    -4.8728 C.ar    
  20 C20           -0.9240    -0.1237    -5.8372 C.ar    
  21 C21           -2.2506    -0.3764    -6.1427 C.ar    
  22 C22           -5.2350     7.5020    -7.1334 C.3     
  23 Cl23           0.3339    -0.9866    -6.6660 Cl      
  24 C24           -6.4997     3.1695    -3.1808 C.3     
  25 C25           -8.1044     1.2722    -1.5433 C.3     
  26 C26           -6.4404     2.5033    -0.1777 C.ar    
  27 C27           -5.8763     2.1242     1.0260 C.ar    
  28 C28           -5.7180     3.0525     2.0379 C.ar    
  29 C29           -6.1234     4.3600     1.8460 C.ar    
  30 C30           -6.6868     4.7394     0.6420 C.ar    
  31 C31           -6.8411     3.8121    -0.3715 C.ar    
  32 C32           -4.4528    11.0932    -3.7164 C.3     
  33 C33           -4.4558    12.1483    -4.7924 C.ar    
  34 C34           -5.6232    11.3139    -2.7931 C.ar    
  35 C35           -3.1697    11.1806    -2.9308 C.ar    
  36 C36           -3.1997    11.5385    -1.5959 C.ar    
  37 C37           -2.0228    11.6188    -0.8753 C.ar    
  38 C38           -0.8159    11.3407    -1.4894 C.ar    
  39 C39           -0.7861    10.9820    -2.8241 C.ar    
  40 C40           -1.9634    10.8975    -3.5436 C.ar    
  41 C41           -5.4717    12.1769    -5.7295 C.ar    
  42 C42           -5.4745    13.1447    -6.7165 C.ar    
  43 C43           -4.4617    14.0842    -6.7662 C.ar    
  44 C44           -3.4463    14.0562    -5.8285 C.ar    
  45 C45           -3.4459    13.0910    -4.8389 C.ar    
  46 C46           -5.8237    12.5536    -2.2155 C.ar    
  47 C47           -6.8973    12.7560    -1.3685 C.ar    
  48 C48           -7.7706    11.7188    -1.0995 C.ar    
  49 C49           -7.5706    10.4793    -1.6779 C.ar    
  50 C50           -6.4995    10.2781    -2.5283 C.ar    
  51 H51           -3.5773     3.9454    -1.9573 H       
  52 H52           -3.8094     6.3851    -2.3366 H       
  53 H53           -4.7144     3.3277    -6.0509 H       
  54 H54           -4.0197     8.4571    -2.6909 H       
  55 H55           -4.2887     0.1087    -5.7267 H       
  56 H56           -4.6907     0.2963    -2.7670 H       
  57 H57           -6.1539     0.5483    -0.9841 H       
  58 H58           -1.3359     2.2354    -3.4596 H       
  59 H59            0.4396     1.0073    -4.6382 H       
  60 H60           -2.5000    -1.1095    -6.8956 H       
  61 H61           -4.3282     7.3877    -7.7275 H       
  62 H62           -5.6491     6.5188    -6.9097 H       
  63 H63           -5.9656     8.0849    -7.6942 H       
  64 H64           -6.2977     3.0961    -4.2494 H       
  65 H65           -7.5757     3.2310    -3.0179 H       
  66 H66           -6.0199     4.0627    -2.7808 H       
  67 H67           -8.5829     0.9051    -0.6353 H       
  68 H68           -8.5635     2.2151    -1.8402 H       
  69 H69           -8.2292     0.5402    -2.3412 H       
  70 H70           -5.5595     1.1026     1.1759 H       
  71 H71           -5.2779     2.7561     2.9786 H       
  72 H72           -6.0004     5.0851     2.6369 H       
  73 H73           -7.0039     5.7609     0.4922 H       
  74 H74           -7.2812     4.1085    -1.3122 H       
  75 H75           -4.1425    11.7557    -1.1161 H       
  76 H76           -2.0461    11.8990     0.1675 H       
  77 H77            0.1036    11.4041    -0.9266 H       
  78 H78            0.1568    10.7651    -3.3040 H       
  79 H79           -1.9401    10.6172    -4.5863 H       
  80 H80           -6.2629    11.4429    -5.6907 H       
  81 H81           -6.2678    13.1666    -7.4491 H       
  82 H82           -4.4635    14.8399    -7.5378 H       
  83 H83           -2.6549    14.7900    -5.8675 H       
  84 H84           -2.6526    13.0691    -4.1064 H       
  85 H85           -5.1414    13.3640    -2.4256 H       
  86 H86           -7.0535    13.7244    -0.9167 H       
  87 H87           -8.6089    11.8768    -0.4373 H       
  88 H88           -8.2527     9.6688    -1.4675 H       
  89 H89           -6.3432     9.3097    -2.9801 H       
@<TRIPOS>BOND
   1    1   14 ar
   2    1   18 ar
   3    1    4 1
   4    2    3 ar
   5    2    5 ar
   6    2   51 1
   7    3    4 1
   8    3    8 ar
   9    4   15 2
  10    5    6 ar
  11    5   52 1
  12    6    7 ar
  13    6    9 1
  14    7    8 ar
  15    8   53 1
  16    9   10 2
  17    9   13 1
  18   10   11 1
  19   10   54 1
  20   11   12 1
  21   11   32 1
  22   12   13 2
  23   13   22 1
  24   14   21 ar
  25   14   55 1
  26   15   16 1
  27   15   56 1
  28   16   17 1
  29   16   24 1
  30   17   25 1
  31   17   26 1
  32   17   57 1
  33   18   19 ar
  34   18   58 1
  35   19   20 ar
  36   19   59 1
  37   20   21 ar
  38   20   23 1
  39   21   60 1
  40   22   61 1
  41   22   62 1
  42   22   63 1
  43   24   64 1
  44   24   65 1
  45   24   66 1
  46   25   67 1
  47   25   68 1
  48   25   69 1
  49   26   27 ar
  50   26   31 ar
  51   27   28 ar
  52   27   70 1
  53   28   29 ar
  54   28   71 1
  55   29   30 ar
  56   29   72 1
  57   30   31 ar
  58   30   73 1
  59   31   74 1
  60   32   33 1
  61   32   34 1
  62   32   35 1
  63   33   41 ar
  64   33   45 ar
  65   34   46 ar
  66   34   50 ar
  67   35   36 ar
  68   35   40 ar
  69   36   37 ar
  70   36   75 1
  71   37   38 ar
  72   37   76 1
  73   38   39 ar
  74   38   77 1
  75   39   40 ar
  76   39   78 1
  77   40   79 1
  78   41   42 ar
  79   41   80 1
  80   42   43 ar
  81   42   81 1
  82   43   44 ar
  83   43   82 1
  84   44   45 ar
  85   44   83 1
  86   45   84 1
  87   46   47 ar
  88   46   85 1
  89   47   48 ar
  90   47   86 1
  91   48   49 ar
  92   48   87 1
  93   49   50 ar
  94   49   88 1
  95   50   89 1

#	End of record

