#	Name: ASD02320001
#	Creating user name:	WinNT
#	Creation time:	15. 06. 2019 20:20

#	Modifying user name:	WinNT
#	Modification time:	15. 06. 2019 20:20

#	Program:	/corina/corina34_cracker 3.40 0067  02.08.2006

@<TRIPOS>MOLECULE
ASD02320001
  47   48    0    0    0
SMALL
NO_CHARGES


@<TRIPOS>ATOM
   1 C1            -0.0168     1.3843     0.0097 C.ar    
   2 C2             0.0021    -0.0041     0.0020 C.ar    
   3 C3             1.2171    -0.6893    -0.0132 C.ar    
   4 C4             2.4057     0.0123    -0.0203 C.ar    
   5 C5             2.3880     1.4127    -0.0127 C.ar    
   6 C6             1.1646     2.0929     0.0022 C.ar    
   7 C7             3.6299     3.5175    -0.0122 C.2     
   8 C8             3.6494     2.1656    -0.0197 C.2     
   9 C9             3.6457     6.4269     0.0033 C.ar    
  10 C10            4.8632     5.7426    -0.0111 C.ar    
  11 C11            4.8845     4.2663    -0.0192 C.2     
  12 C12            3.6333     7.8095     0.0104 C.ar    
  13 C13            4.8280     8.5189     0.0028 C.ar    
  14 C14            6.0362     7.8502    -0.0109 C.ar    
  15 C15            6.0648     6.4644    -0.0182 C.ar    
  16 O16            5.9479     3.6727    -0.0317 O.2     
  17 O17           -1.1659    -0.6970     0.0099 O.3     
  18 S18           -1.7121    -1.0054    -1.3769 S.o2    
  19 O19           -3.0130    -1.5439    -1.1851 O.2     
  20 O20           -1.4560     0.1431    -2.1735 O.2     
  21 O21           -0.8633    -2.1282    -1.9560 O.3     
  22 Na22          -1.2477    -3.9182    -1.1762 Du      
  23 O23            1.2305    -2.0492    -0.0207 O.3     
  24 C24            2.5100    -2.6853    -0.0363 C.3     
  25 O25            7.2530     5.8082    -0.0317 O.3     
  26 S26            7.8068     5.5019     1.3525 S.o2    
  27 O27            9.1239     5.0057     1.1570 O.2     
  28 O28            7.5145     6.6333     2.1610 O.2     
  29 O29            6.9922     4.3474     1.9183 O.3     
  30 Na30           7.4325     2.5785     1.1200 Du      
  31 O31            2.4486     8.4769     0.0244 O.3     
  32 S32            1.9217     8.7737     1.4211 S.o2    
  33 O33            0.6056     9.2827     1.2537 O.2     
  34 O34            2.2184     7.6317     2.2129 O.2     
  35 O35            2.7558     9.9156     1.9840 O.3     
  36 Na36           2.3166    11.6961     1.2113 Du      
  37 H37           -0.9601     1.9100     0.0170 H       
  38 H38            3.3470    -0.5172    -0.0314 H       
  39 H39            1.1469     3.1727     0.0081 H       
  40 H40            2.6869     4.0439    -0.0011 H       
  41 H41            4.5923     1.6392    -0.0308 H       
  42 H42            2.7160     5.8773     0.0043 H       
  43 H43            4.8116     9.5988     0.0077 H       
  44 H44            6.9608     8.4082    -0.0171 H       
  45 H45            3.0556    -2.3822    -0.9299 H       
  46 H46            3.0726    -2.3917     0.8500 H       
  47 H47            2.3778    -3.7673    -0.0408 H       
@<TRIPOS>BOND
   1    1    2 ar
   2    1    6 ar
   3    1   37 1
   4    2    3 ar
   5    2   17 1
   6    3    4 ar
   7    3   23 1
   8    4    5 ar
   9    4   38 1
  10    5    6 ar
  11    5    8 1
  12    6   39 1
  13    7    8 2
  14    7   11 1
  15    7   40 1
  16    8   41 1
  17    9   10 ar
  18    9   12 ar
  19    9   42 1
  20   10   11 1
  21   10   15 ar
  22   11   16 2
  23   12   13 ar
  24   12   31 1
  25   13   14 ar
  26   13   43 1
  27   14   15 ar
  28   14   44 1
  29   15   25 1
  30   17   18 1
  31   18   19 2
  32   18   20 2
  33   18   21 1
  34   21   22 1
  35   23   24 1
  36   24   45 1
  37   24   46 1
  38   24   47 1
  39   25   26 1
  40   26   27 2
  41   26   28 2
  42   26   29 1
  43   29   30 1
  44   31   32 1
  45   32   33 2
  46   32   34 2
  47   32   35 1
  48   35   36 1

#	End of record

