#	Name: ASD05430172
#	Creating user name:	WinNT
#	Creation time:	15. 06. 2019 20:59

#	Modifying user name:	WinNT
#	Modification time:	15. 06. 2019 20:59

#	Program:	/corina/corina34_cracker 3.40 0067  02.08.2006

@<TRIPOS>MOLECULE
ASD05430172
  66   73    0    0    0
SMALL
NO_CHARGES


@<TRIPOS>ATOM
   1 C1            -0.0169     1.3936     0.0097 C.ar    
   2 C2             0.0021    -0.0041     0.0020 C.ar    
   3 C3             1.2093    -0.6827    -0.0205 C.ar    
   4 C4             2.4012     0.0164    -0.0356 C.ar    
   5 C5             2.3879     1.4002    -0.0245 C.ar    
   6 C6             1.1892     2.0796     0.0019 C.ar    
   7 C7             4.2409     0.9408     2.2062 C.3     
   8 C8             4.6581     1.9302     1.1161 C.3     
   9 C9             3.6861     2.1652    -0.0403 C.3     
  10 C10            4.2371     1.6129     3.5740 C.3     
  11 C11            3.9870     3.1197     3.5390 C.3     
  12 N12            5.0408     3.7491     2.7420 N.pl3   
  13 C13            5.4722     3.1074     1.5951 C.2     
  14 C14            5.6359     5.0324     3.1116 C.3     
  15 C15            7.1323     4.9807     2.7827 C.3     
  16 O16            7.3179     4.5715     1.4314 O.3     
  17 N17            6.5282     3.4953     0.9832 N.2     
  18 C18            4.9814     6.1405     2.3276 C.ar    
  19 C19            4.6954     7.3455     2.9420 C.ar    
  20 C20            4.6726     5.9534     0.9931 C.ar    
  21 C21            4.0732     6.9692     0.2730 C.ar    
  22 C22            3.7815     8.1746     0.8886 C.ar    
  23 C23            4.0956     8.3626     2.2239 C.ar    
  24 N24           -1.2045    -0.7212     0.0177 N.pl3   
  25 F25            3.1955     9.1684     0.1855 F       
  26 C26            4.9726     1.3692    -0.2707 C.3     
  27 C27            3.3714     0.8797     4.6118 C.3     
  28 O28            4.4719     1.1021     5.5171 O.3     
  29 C29            5.4366     1.2187     4.4514 C.3     
  30 C30           -2.2435    -0.5342     0.8717 C.2     
  31 C31           -1.5587    -1.7383    -0.8301 C.2     
  32 C32           -2.7914    -2.1394    -0.4646 C.2     
  33 N33           -3.1847    -1.3887     0.5749 N.2     
  34 C34           -3.5921    -3.2384    -1.1142 C.3     
  35 C35            0.8592     3.5594     0.0369 C.3     
  36 C36           -0.6293     3.5459     0.4581 C.3     
  37 O37           -1.0735     2.2527     0.0139 O.3     
  38 H38            1.2192    -1.7626    -0.0260 H       
  39 H39            3.3408    -0.5158    -0.0556 H       
  40 H40            3.2407     0.5668     1.9875 H       
  41 H41            4.9406     0.1051     2.2191 H       
  42 H42            3.6343     3.1707    -0.4578 H       
  43 H43            3.0163     3.3191     3.0850 H       
  44 H44            4.0082     3.5178     4.5535 H       
  45 H45            5.5000     5.2067     4.1789 H       
  46 H46            7.5686     5.9695     2.9247 H       
  47 H47            7.6247     4.2704     3.4469 H       
  48 H48            4.9405     7.4919     3.9835 H       
  49 H49            4.9002     5.0130     0.5132 H       
  50 H50            3.8327     6.8230    -0.7697 H       
  51 H51            3.8682     9.3023     2.7052 H       
  52 H52            5.7674     1.8510    -0.8402 H       
  53 H53            4.8799     0.2922    -0.4109 H       
  54 H54            2.4613     1.4143     4.8840 H       
  55 H55            3.1974    -0.1707     4.3784 H       
  56 H56            5.8981     0.2726     4.1686 H       
  57 H57            6.1596     2.0214     4.5967 H       
  58 H58           -2.2841     0.1983     1.6643 H       
  59 H59           -0.9637    -2.1407    -1.6366 H       
  60 H60           -3.3711    -4.1869    -0.6247 H       
  61 H61           -4.6554    -3.0189    -1.0179 H       
  62 H62           -3.3288    -3.3044    -2.1699 H       
  63 H63            1.4688     4.0770     0.7776 H       
  64 H64            0.9811     4.0091    -0.9486 H       
  65 H65           -0.7254     3.6362     1.5401 H       
  66 H66           -1.1809     4.3386    -0.0473 H       
@<TRIPOS>BOND
   1    1    2 ar
   2    1    6 ar
   3    1   37 1
   4    2    3 ar
   5    2   24 1
   6    3    4 ar
   7    3   38 1
   8    4    5 ar
   9    4   39 1
  10    5    6 ar
  11    5    9 1
  12    6   35 1
  13    7    8 1
  14    7   10 1
  15    7   40 1
  16    7   41 1
  17    8    9 1
  18    8   26 1
  19    8   13 1
  20    9   26 1
  21    9   42 1
  22   10   11 1
  23   10   27 1
  24   10   29 1
  25   11   12 1
  26   11   43 1
  27   11   44 1
  28   12   13 1
  29   12   14 1
  30   13   17 2
  31   14   15 1
  32   14   18 1
  33   14   45 1
  34   15   16 1
  35   15   46 1
  36   15   47 1
  37   16   17 1
  38   18   19 ar
  39   18   20 ar
  40   19   23 ar
  41   19   48 1
  42   20   21 ar
  43   20   49 1
  44   21   22 ar
  45   21   50 1
  46   22   23 ar
  47   22   25 1
  48   23   51 1
  49   24   30 1
  50   24   31 1
  51   26   52 1
  52   26   53 1
  53   27   28 1
  54   27   54 1
  55   27   55 1
  56   28   29 1
  57   29   56 1
  58   29   57 1
  59   30   33 2
  60   30   58 1
  61   31   32 2
  62   31   59 1
  63   32   33 1
  64   32   34 1
  65   34   60 1
  66   34   61 1
  67   34   62 1
  68   35   36 1
  69   35   63 1
  70   35   64 1
  71   36   37 1
  72   36   65 1
  73   36   66 1

#	End of record

