#	Name: ASD02198817
#	Creating user name:	WinNT
#	Creation time:	15. 06. 2019 20:20

#	Modifying user name:	WinNT
#	Modification time:	15. 06. 2019 20:20

#	Program:	/corina/corina34_cracker 3.40 0067  02.08.2006

@<TRIPOS>MOLECULE
ASD02198817
  48   52    0    0    0
SMALL
NO_CHARGES


@<TRIPOS>ATOM
   1 F1             2.5104    -2.1526     1.9123 F       
   2 C2            -0.0163     1.3526     0.0095 C.2     
   3 C3             0.0021    -0.0041     0.0020 C.2     
   4 N4             1.1722    -0.6813    -0.0128 N.pl3   
   5 N5             2.3181    -0.1068    -0.0202 N.2     
   6 C6             2.4434     1.2030    -0.0144 C.2     
   7 C7             1.2264     2.0304     0.0013 C.2     
   8 C8             1.1303    -2.0796    -0.0199 C.ar    
   9 C9             1.8096    -2.8016     0.9568 C.ar    
  10 C10            1.7671    -4.1829     0.9483 C.ar    
  11 C11            1.0469    -4.8489    -0.0344 C.ar    
  12 C12            0.3694    -4.1276    -1.0094 C.ar    
  13 C13            0.4057    -2.7483    -0.9988 C.ar    
  14 C14            3.7802     1.8310    -0.0233 C.2     
  15 N15            4.5050     2.1822    -1.1273 N.pl3   
  16 N16            5.7096     2.7437    -0.6859 N.2     
  17 C17            5.7224     2.7371     0.6232 C.2     
  18 C18            4.5286     2.1786     1.0799 C.2     
  19 C19            4.1135     2.0107    -2.4612 C.ar    
  20 C20            4.4732     2.9505    -3.4180 C.ar    
  21 C21            4.0859     2.7793    -4.7329 C.ar    
  22 C22            3.3406     1.6734    -5.0973 C.ar    
  23 C23            2.9802     0.7344    -4.1463 C.ar    
  24 C24            3.3698     0.8976    -2.8303 C.ar    
  25 O25            1.2861     3.2510     0.0069 O.2     
  26 N26            1.0039    -6.2499    -0.0430 N.pl3   
  27 N27            1.6362    -7.0998     0.8736 N.2     
  28 C28            1.3645    -8.3360     0.5402 C.2     
  29 C29            0.5513    -8.3140    -0.5981 C.2     
  30 C30            0.3398    -7.0203    -0.9341 C.2     
  31 Cl31           2.0443    -0.6528    -4.6082 Cl      
  32 C32            4.1333     1.9812     2.5207 C.3     
  33 H33           -0.9487     1.8976     0.0169 H       
  34 H34           -0.9298    -0.5499     0.0083 H       
  35 H35            2.2942    -4.7442     1.7056 H       
  36 H36           -0.1898    -4.6468    -1.7737 H       
  37 H37           -0.1217    -2.1886    -1.7570 H       
  38 H38            6.5233     3.1066     1.2465 H       
  39 H39            5.0551     3.8150    -3.1343 H       
  40 H40            4.3653     3.5104    -5.4770 H       
  41 H41            3.0388     1.5421    -6.1259 H       
  42 H42            3.0888     0.1648    -2.0884 H       
  43 H43            1.7091    -9.2207     1.0550 H       
  44 H44            0.1589    -9.1770    -1.1154 H       
  45 H45           -0.2489    -6.6667    -1.7677 H       
  46 H46            3.6057     2.8659     2.8771 H       
  47 H47            3.4812     1.1116     2.6027 H       
  48 H48            5.0271     1.8233     3.1243 H       
@<TRIPOS>BOND
   1    1    9 1
   2    2    3 2
   3    2    7 1
   4    2   33 1
   5    3    4 1
   6    3   34 1
   7    4    5 1
   8    4    8 1
   9    5    6 2
  10    6    7 1
  11    6   14 1
  12    7   25 2
  13    8    9 ar
  14    8   13 ar
  15    9   10 ar
  16   10   11 ar
  17   10   35 1
  18   11   12 ar
  19   11   26 1
  20   12   13 ar
  21   12   36 1
  22   13   37 1
  23   14   15 1
  24   14   18 2
  25   15   16 1
  26   15   19 1
  27   16   17 2
  28   17   18 1
  29   17   38 1
  30   18   32 1
  31   19   20 ar
  32   19   24 ar
  33   20   21 ar
  34   20   39 1
  35   21   22 ar
  36   21   40 1
  37   22   23 ar
  38   22   41 1
  39   23   24 ar
  40   23   31 1
  41   24   42 1
  42   26   27 1
  43   26   30 1
  44   27   28 2
  45   28   29 1
  46   28   43 1
  47   29   30 2
  48   29   44 1
  49   30   45 1
  50   32   46 1
  51   32   47 1
  52   32   48 1

#	End of record

