#	Name: ASD01914884
#	Creating user name:	WinNT
#	Creation time:	15. 06. 2019 20:04

#	Modifying user name:	WinNT
#	Modification time:	15. 06. 2019 20:04

#	Program:	/corina/corina34_cracker 3.40 0067  02.08.2006

@<TRIPOS>MOLECULE
ASD01914884
  62   67    0    0    0
SMALL
NO_CHARGES


@<TRIPOS>ATOM
   1 N1             0.0272     1.3908    -0.1029 N.2     
   2 C2            -0.0390     0.0593     0.0783 C.2     
   3 C3             1.2323    -0.4204     0.1478 C.2     
   4 N4             2.0697     0.6504     0.0046 N.pl3   
   5 C5             1.2872     1.7580    -0.1489 C.2     
   6 C6            -1.2810    -0.7450     0.1843 C.ar    
   7 C7            -2.5205    -0.1215     0.0953 C.ar    
   8 C8            -1.2018    -2.1289     0.3677 C.ar    
   9 C9            -2.3354    -2.8810     0.4660 C.ar    
  10 C10           -3.5904    -2.2700     0.3840 C.ar    
  11 C11           -3.6765    -0.8793     0.1948 C.ar    
  12 C12            1.7767     3.1411    -0.3362 C.ar    
  13 C13            3.0852     3.4749     0.0153 C.ar    
  14 C14            3.5357     4.7669    -0.1619 C.ar    
  15 C15            2.6930     5.7306    -0.6865 C.ar    
  16 C16            1.3944     5.4062    -1.0365 C.ar    
  17 C17            0.9338     4.1163    -0.8705 C.ar    
  18 C18            3.5343     0.6157     0.0148 C.3     
  19 C19            4.0325     0.8484     1.4179 C.2     
  20 O20            3.2420     1.0257     2.3205 O.2     
  21 N21            5.3565     0.8594     1.6697 N.am    
  22 C22            5.8640     1.0847     3.0317 C.3     
  23 C23            6.3319     0.6404     0.5910 C.3     
  24 C24            7.3069    -0.4567     1.0316 C.3     
  25 N25            7.8887    -0.0970     2.3316 N.3     
  26 C26            6.8583    -0.0308     3.3713 C.3     
  27 C27            8.8931    -0.9815     2.6843 C.ar    
  28 N28            9.9113    -1.1671     1.8571 N.ar    
  29 N29            8.8163    -1.6185     3.8435 N.ar    
  30 C30            9.7594    -2.4700     4.2109 C.ar    
  31 C31           10.8363    -2.6918     3.3669 C.ar    
  32 C32           10.8878    -2.0049     2.1641 C.ar    
  33 N33           -4.8630    -2.7398     0.4448 N.2     
  34 C34           -5.7010    -1.7532     0.3136 C.2     
  35 N35           -5.0250    -0.5828     0.1557 N.pl3   
  36 C36           -5.6174     0.7453    -0.0213 C.3     
  37 H37            1.5240    -1.4506     0.2897 H       
  38 H38           -2.5820     0.9469    -0.0502 H       
  39 H39           -0.2352    -2.6062     0.4318 H       
  40 H40           -2.2635    -3.9494     0.6069 H       
  41 H41            3.7438     2.7236     0.4255 H       
  42 H42            4.5482     5.0265     0.1097 H       
  43 H43            3.0503     6.7406    -0.8229 H       
  44 H44            0.7413     6.1633    -1.4448 H       
  45 H45           -0.0800     3.8642    -1.1445 H       
  46 H46            3.8771    -0.3578    -0.3357 H       
  47 H47            3.9207     1.3951    -0.6419 H       
  48 H48            6.3668     2.0506     3.0799 H       
  49 H49            5.0352     1.0644     3.7393 H       
  50 H50            5.8123     0.3264    -0.3144 H       
  51 H51            6.8805     1.5628     0.4005 H       
  52 H52            6.7733    -1.4029     1.1213 H       
  53 H53            8.1016    -0.5555     0.2922 H       
  54 H54            7.3254     0.1794     4.3335 H       
  55 H55            6.3317    -0.9837     3.4226 H       
  56 H56            9.6915    -2.9860     5.1573 H       
  57 H57           11.6204    -3.3815     3.6424 H       
  58 H58           11.7132    -2.1550     1.4840 H       
  59 H59           -6.7766    -1.8496     0.3250 H       
  60 H60           -5.7631     1.2110     0.9534 H       
  61 H61           -4.9511     1.3632    -0.6232 H       
  62 H62           -6.5790     0.6499    -0.5258 H       
@<TRIPOS>BOND
   1    1    2 1
   2    1    5 2
   3    2    3 2
   4    2    6 1
   5    3    4 1
   6    3   37 1
   7    4    5 1
   8    4   18 1
   9    5   12 1
  10    6    7 ar
  11    6    8 ar
  12    7   11 ar
  13    7   38 1
  14    8    9 ar
  15    8   39 1
  16    9   10 ar
  17    9   40 1
  18   10   11 ar
  19   10   33 1
  20   11   35 1
  21   12   13 ar
  22   12   17 ar
  23   13   14 ar
  24   13   41 1
  25   14   15 ar
  26   14   42 1
  27   15   16 ar
  28   15   43 1
  29   16   17 ar
  30   16   44 1
  31   17   45 1
  32   18   19 1
  33   18   46 1
  34   18   47 1
  35   19   20 2
  36   19   21 am
  37   21   22 1
  38   21   23 1
  39   22   26 1
  40   22   48 1
  41   22   49 1
  42   23   24 1
  43   23   50 1
  44   23   51 1
  45   24   25 1
  46   24   52 1
  47   24   53 1
  48   25   26 1
  49   25   27 1
  50   26   54 1
  51   26   55 1
  52   27   28 ar
  53   27   29 ar
  54   28   32 ar
  55   29   30 ar
  56   30   31 ar
  57   30   56 1
  58   31   32 ar
  59   31   57 1
  60   32   58 1
  61   33   34 2
  62   34   35 1
  63   34   59 1
  64   35   36 1
  65   36   60 1
  66   36   61 1
  67   36   62 1

#	End of record

