#	Name: ASD05250100
#	Creating user name:	WinNT
#	Creation time:	15. 06. 2019 20:58

#	Modifying user name:	WinNT
#	Modification time:	15. 06. 2019 20:58

#	Program:	/corina/corina34_cracker 3.40 0067  02.08.2006

@<TRIPOS>MOLECULE
ASD05250100
  47   51    0    0    0
SMALL
NO_CHARGES


@<TRIPOS>ATOM
   1 C1             0.6478     0.2694    -1.2084 C.ar    
   2 C2             0.0016    -0.0033     0.0010 C.ar    
   3 C3             0.5587     0.4425     1.2033 C.ar    
   4 C4             1.7407     1.1479     1.1924 C.ar    
   5 C5             2.3809     1.4174    -0.0131 C.ar    
   6 C6             1.8295     0.9753    -1.2115 C.ar    
   7 C7            -1.2648    -0.7588     0.0085 C.2     
   8 O8            -1.8862    -1.0207     1.1751 O.3     
   9 O9            -1.7479    -1.1453    -1.0373 O.2     
  10 C10           -3.1287    -1.7691     1.1067 C.3     
  11 C11           -3.6828    -1.9678     2.5189 C.3     
  12 N12            3.5791     2.1333    -0.0202 N.am    
  13 C13            3.5748     3.5059    -0.1160 C.2     
  14 C14            4.8297     4.0892    -0.1114 C.2     
  15 S15            5.9918     2.7647     0.0228 S.3     
  16 C16            4.7527     1.4983     0.0716 C.2     
  17 N17            2.4997     4.3289    -0.2116 N.2     
  18 C18            2.6149     5.6285    -0.2978 C.2     
  19 N19            3.8311     6.2499    -0.2975 N.pl3   
  20 C20            4.9754     5.4859    -0.2035 C.2     
  21 C21            4.2281     7.5719    -0.3760 C.ar    
  22 C22            5.6341     7.5662    -0.3253 C.ar    
  23 N23            6.0311     6.2813    -0.2213 N.2     
  24 C24            3.5471     8.7757    -0.4848 C.ar    
  25 C25            4.2532     9.9595    -0.5425 C.ar    
  26 C26            5.6399     9.9547    -0.4930 C.ar    
  27 C27            6.3287     8.7802    -0.3856 C.ar    
  28 S28            5.0060    -0.1898     0.2015 S.2     
  29 S29            1.1556     6.6086    -0.4187 S.3     
  30 C30           -0.1016     5.3073    -0.3737 C.3     
  31 C31           -1.4396     5.9144    -0.4643 C.1     
  32 N32           -2.4721     6.3828    -0.5342 N.1     
  33 H33            0.2226    -0.0773    -2.1387 H       
  34 H34            0.0621     0.2340     2.1394 H       
  35 H35            2.1714     1.4929     2.1208 H       
  36 H36            2.3292     1.1863    -2.1454 H       
  37 H37           -3.8524    -1.2176     0.5066 H       
  38 H38           -2.9428    -2.7409     0.6493 H       
  39 H39           -2.9590    -2.5193     3.1189 H       
  40 H40           -3.8687    -0.9960     2.9763 H       
  41 H41           -4.6154    -2.5296     2.4675 H       
  42 H42            2.4679     8.7860    -0.5245 H       
  43 H43            3.7229    10.8966    -0.6272 H       
  44 H44            6.1798    10.8889    -0.5395 H       
  45 H45            7.4080     8.7881    -0.3471 H       
  46 H46            0.0473     4.6291    -1.2139 H       
  47 H47           -0.0169     4.7524     0.5606 H       
@<TRIPOS>BOND
   1    1    2 ar
   2    1    6 ar
   3    1   33 1
   4    2    3 ar
   5    2    7 1
   6    3    4 ar
   7    3   34 1
   8    4    5 ar
   9    4   35 1
  10    5    6 ar
  11    5   12 1
  12    6   36 1
  13    7    8 1
  14    7    9 2
  15    8   10 1
  16   10   11 1
  17   10   37 1
  18   10   38 1
  19   11   39 1
  20   11   40 1
  21   11   41 1
  22   12   13 1
  23   12   16 am
  24   13   14 2
  25   13   17 1
  26   14   15 1
  27   14   20 1
  28   15   16 1
  29   16   28 2
  30   17   18 2
  31   18   19 1
  32   18   29 1
  33   19   20 1
  34   19   21 1
  35   20   23 2
  36   21   22 ar
  37   21   24 ar
  38   22   23 1
  39   22   27 ar
  40   24   25 ar
  41   24   42 1
  42   25   26 ar
  43   25   43 1
  44   26   27 ar
  45   26   44 1
  46   27   45 1
  47   29   30 1
  48   30   31 1
  49   30   46 1
  50   30   47 1
  51   31   32 3

#	End of record

