#	Name: ASD01811673
#	Creating user name:	WinNT
#	Creation time:	15. 06. 2019 19:27

#	Modifying user name:	WinNT
#	Modification time:	15. 06. 2019 19:27

#	Program:	/corina/corina34_cracker 3.40 0067  02.08.2006

@<TRIPOS>MOLECULE
ASD01811673
  56   60    0    0    0
SMALL
NO_CHARGES


@<TRIPOS>ATOM
   1 C1            -0.0167     1.3805     0.0096 C.ar    
   2 C2             0.0021    -0.0041     0.0020 C.ar    
   3 C3             1.2075    -0.6836    -0.0127 C.ar    
   4 C4             2.3988     0.0118    -0.0203 C.ar    
   5 C5             2.3881     1.4079    -0.0132 C.ar    
   6 C6             1.1658     2.0836     0.0021 C.ar    
   7 C7             1.2188    -2.1905    -0.0199 C.3     
   8 C8             1.2090    -2.6861    -1.4430 C.ar    
   9 C9             3.4708     2.4102    -0.0183 C.2     
  10 N10            2.9565     3.6521    -0.0072 N.am    
  11 C11            1.4923     3.5561     0.0064 C.3     
  12 C12            2.4025    -2.9075    -2.1159 C.ar    
  13 C13            2.3502    -3.3627    -3.4217 C.ar    
  14 C14            1.1078    -3.5820    -4.0130 C.ar    
  15 N15           -0.0105    -3.3576    -3.3350 N.ar    
  16 C16            0.0114    -2.9299    -2.0886 C.ar    
  17 C17            1.0346    -4.0698    -5.4118 C.2     
  18 C18            2.1253    -4.4452    -6.2213 C.2     
  19 N19            1.6585    -4.8178    -7.3831 N.2     
  20 N20            0.2639    -4.6964    -7.3624 N.pl3   
  21 C21           -0.1021    -4.2425    -6.1480 C.2     
  22 C22           -0.6420    -5.0136    -8.4692 C.3     
  23 O23            4.6581     2.1501    -0.0300 O.2     
  24 C24            3.7301     4.8962    -0.0086 C.3     
  25 C25            4.5993     4.9548    -1.2663 C.3     
  26 C26            5.4073     6.2541    -1.2678 C.3     
  27 C27            6.3016     6.2999    -0.0272 C.3     
  28 C28            5.4324     6.2412     1.2305 C.3     
  29 C29            4.6244     4.9420     1.2320 C.3     
  30 O30            3.7640     4.9120    -2.4250 O.3     
  31 H31           -0.9590     1.9081     0.0170 H       
  32 H32           -0.9267    -0.5552     0.0079 H       
  33 H33            3.3374    -0.5224    -0.0314 H       
  34 H34            2.1164    -2.5495     0.4837 H       
  35 H35            0.3365    -2.5629     0.5006 H       
  36 H36            1.0774     4.0343    -0.8809 H       
  37 H37            1.0945     4.0255     0.9061 H       
  38 H38            3.3509    -2.7281    -1.6314 H       
  39 H39            3.2597    -3.5450    -3.9749 H       
  40 H40           -0.9190    -2.7585    -1.5678 H       
  41 H41            3.1657    -4.4276    -5.9318 H       
  42 H42           -1.1115    -4.0454    -5.8183 H       
  43 H43           -0.9461    -6.0581    -8.4019 H       
  44 H44           -1.5231    -4.3743    -8.4122 H       
  45 H45           -0.1310    -4.8442    -9.4170 H       
  46 H46            3.0494     5.7474     0.0026 H       
  47 H47            5.2801     4.1036    -1.2776 H       
  48 H48            6.0265     6.2958    -2.1639 H       
  49 H49            4.7265     7.1053    -1.2566 H       
  50 H50            6.9823     5.4487    -0.0385 H       
  51 H51            6.8772     7.2255    -0.0283 H       
  52 H52            6.0695     6.2739     2.1143 H       
  53 H53            4.7516     7.0924     1.2417 H       
  54 H54            4.0052     4.9002     2.1280 H       
  55 H55            5.3052     4.0908     1.2208 H       
  56 H56            4.2490     4.9455    -3.2609 H       
@<TRIPOS>BOND
   1    1    2 ar
   2    1    6 ar
   3    1   31 1
   4    2    3 ar
   5    2   32 1
   6    3    4 ar
   7    3    7 1
   8    4    5 ar
   9    4   33 1
  10    5    6 ar
  11    5    9 1
  12    6   11 1
  13    7    8 1
  14    7   34 1
  15    7   35 1
  16    8   12 ar
  17    8   16 ar
  18    9   10 am
  19    9   23 2
  20   10   11 1
  21   10   24 1
  22   11   36 1
  23   11   37 1
  24   12   13 ar
  25   12   38 1
  26   13   14 ar
  27   13   39 1
  28   14   15 ar
  29   14   17 1
  30   15   16 ar
  31   16   40 1
  32   17   18 1
  33   17   21 2
  34   18   19 2
  35   18   41 1
  36   19   20 1
  37   20   21 1
  38   20   22 1
  39   21   42 1
  40   22   43 1
  41   22   44 1
  42   22   45 1
  43   24   25 1
  44   24   29 1
  45   24   46 1
  46   25   26 1
  47   25   30 1
  48   25   47 1
  49   26   27 1
  50   26   48 1
  51   26   49 1
  52   27   28 1
  53   27   50 1
  54   27   51 1
  55   28   29 1
  56   28   52 1
  57   28   53 1
  58   29   54 1
  59   29   55 1
  60   30   56 1

#	End of record

