#	Name: ASD01841012
#	Creating user name:	WinNT
#	Creation time:	15. 06. 2019 19:38

#	Modifying user name:	WinNT
#	Modification time:	15. 06. 2019 19:38

#	Program:	/corina/corina34_cracker 3.40 0067  02.08.2006

@<TRIPOS>MOLECULE
ASD01841012
  89   92    0    0    0
SMALL
NO_CHARGES


@<TRIPOS>ATOM
   1 C1            -0.0178     1.4648     0.0101 C.3     
   2 N2             0.0021    -0.0041     0.0020 N.4     
   3 C3             0.6897    -0.4778    -1.2066 C.3     
   4 C4             0.5983    -0.5706    -3.7017 C.3     
   5 N5            -0.1769    -0.1859    -4.8887 N.4     
   6 C6            -0.2014     1.2783    -5.0042 C.3     
   7 C7             0.7126    -0.4907     1.1921 C.3     
   8 C8            -0.0711    -0.1034     2.4478 C.3     
   9 C9             0.6689    -0.6103     3.6874 C.3     
  10 C10           -0.1148    -0.2230     4.9431 C.3     
  11 C11            0.6730    -0.6132     6.1671 C.ar    
  12 C12           -0.3489     1.2657     4.9499 C.ar    
  13 O13           -1.3716    -0.9029     4.9488 O.3     
  14 C14            0.0140    -0.9554     7.3331 C.ar    
  15 C15            0.7366    -1.3133     8.4559 C.ar    
  16 C16            2.1182    -1.3294     8.4125 C.ar    
  17 C17            2.7772    -0.9880     7.2463 C.ar    
  18 C18            2.0545    -0.6344     6.1222 C.ar    
  19 C19           -1.4766     1.7852     5.5576 C.ar    
  20 C20           -1.6914     3.1507     5.5638 C.ar    
  21 C21           -0.7783     3.9968     4.9627 C.ar    
  22 C22            0.3498     3.4773     4.3557 C.ar    
  23 C23            0.5668     2.1121     4.3533 C.ar    
  24 C24            0.4461    -0.7614    -6.0881 C.3     
  25 C25           -0.4282    -0.4662    -7.3085 C.3     
  26 C26            0.2207    -1.0655    -8.5577 C.3     
  27 C27           -0.6536    -0.7703    -9.7781 C.3     
  28 O28           -0.6882     0.6394   -10.0095 O.3     
  29 C29           -0.0797    -1.4638   -10.9868 C.ar    
  30 C30           -2.0521    -1.2728    -9.5276 C.ar    
  31 C31           -3.1302    -0.6386   -10.1161 C.ar    
  32 C32           -4.4130    -1.0994    -9.8862 C.ar    
  33 C33           -4.6177    -2.1948    -9.0682 C.ar    
  34 C34           -3.5395    -2.8295    -8.4804 C.ar    
  35 C35           -2.2564    -2.3713    -8.7137 C.ar    
  36 C36           -0.2531    -0.9172   -12.2446 C.ar    
  37 C37            0.2732    -1.5533   -13.3532 C.ar    
  38 C38            0.9735    -2.7358   -13.2041 C.ar    
  39 C39            1.1477    -3.2819   -11.9462 C.ar    
  40 C40            0.6251    -2.6436   -10.8371 C.ar    
  41 C41           -0.1178    -0.0772    -2.4429 C.3     
  42 H42            1.0047     1.8421     0.0024 H       
  43 H43           -0.5450     1.8259    -0.8730 H       
  44 H44           -0.5280     1.8163     0.9069 H       
  45 H45           -0.9445    -0.3533     0.0092 H       
  46 H46            1.6817    -0.0294    -1.2596 H       
  47 H47            0.7830    -1.5632    -1.1697 H       
  48 H48            0.6917    -1.6560    -3.6647 H       
  49 H49            1.5904    -0.1222    -3.7547 H       
  50 H50           -1.1206    -0.5322    -4.8008 H       
  51 H51           -0.7766     1.5638    -5.8849 H       
  52 H52           -0.6637     1.7053    -4.1142 H       
  53 H53            0.8180     1.6524    -5.0991 H       
  54 H54            0.8051    -1.5756     1.1418 H       
  55 H55            1.7055    -0.0428     1.2310 H       
  56 H56           -0.1636     0.9815     2.4982 H       
  57 H57           -1.0640    -0.5514     2.4090 H       
  58 H58            0.7614    -1.6952     3.6370 H       
  59 H59            1.6619    -0.1623     3.7262 H       
  60 H60           -1.2972    -1.8671     4.9449 H       
  61 H61           -1.0654    -0.9428     7.3669 H       
  62 H62            0.2218    -1.5800     9.3670 H       
  63 H63            2.6828    -1.6083     9.2900 H       
  64 H64            3.8566    -1.0003     7.2125 H       
  65 H65            2.5693    -0.3677     5.2110 H       
  66 H66           -2.1900     1.1242     6.0272 H       
  67 H67           -2.5728     3.5566     6.0380 H       
  68 H68           -0.9465     5.0636     4.9669 H       
  69 H69            1.0630     4.1383     3.8858 H       
  70 H70            1.4482     1.7063     3.8792 H       
  71 H71            1.4324    -0.3203    -6.2324 H       
  72 H72            0.5450    -1.8398    -5.9643 H       
  73 H73           -1.4144    -0.9073    -7.1642 H       
  74 H74           -0.5271     0.6122    -7.4323 H       
  75 H75            1.2070    -0.6244    -8.7021 H       
  76 H76            0.3196    -2.1440    -8.4339 H       
  77 H77            0.1794     1.0317   -10.1784 H       
  78 H78           -2.9702     0.2172   -10.7552 H       
  79 H79           -5.2553    -0.6035   -10.3455 H       
  80 H80           -5.6200    -2.5544    -8.8880 H       
  81 H81           -3.6995    -3.6851    -7.8410 H       
  82 H82           -1.4140    -2.8673    -8.2545 H       
  83 H83           -0.8002     0.0067   -12.3611 H       
  84 H84            0.1371    -1.1266   -14.3360 H       
  85 H85            1.3841    -3.2332   -14.0703 H       
  86 H86            1.6945    -4.2060   -11.8297 H       
  87 H87            0.7612    -3.0702    -9.8543 H       
  88 H88           -1.1099    -0.5256    -2.3899 H       
  89 H89           -0.2112     1.0082    -2.4798 H       
@<TRIPOS>BOND
   1    1    2 1
   2    1   42 1
   3    1   43 1
   4    1   44 1
   5    2    3 1
   6    2    7 1
   7    2   45 1
   8    3   41 1
   9    3   46 1
  10    3   47 1
  11    4    5 1
  12    4   41 1
  13    4   48 1
  14    4   49 1
  15    5    6 1
  16    5   24 1
  17    5   50 1
  18    6   51 1
  19    6   52 1
  20    6   53 1
  21    7    8 1
  22    7   54 1
  23    7   55 1
  24    8    9 1
  25    8   56 1
  26    8   57 1
  27    9   10 1
  28    9   58 1
  29    9   59 1
  30   10   11 1
  31   10   12 1
  32   10   13 1
  33   11   14 ar
  34   11   18 ar
  35   12   19 ar
  36   12   23 ar
  37   13   60 1
  38   14   15 ar
  39   14   61 1
  40   15   16 ar
  41   15   62 1
  42   16   17 ar
  43   16   63 1
  44   17   18 ar
  45   17   64 1
  46   18   65 1
  47   19   20 ar
  48   19   66 1
  49   20   21 ar
  50   20   67 1
  51   21   22 ar
  52   21   68 1
  53   22   23 ar
  54   22   69 1
  55   23   70 1
  56   24   25 1
  57   24   71 1
  58   24   72 1
  59   25   26 1
  60   25   73 1
  61   25   74 1
  62   26   27 1
  63   26   75 1
  64   26   76 1
  65   27   28 1
  66   27   29 1
  67   27   30 1
  68   28   77 1
  69   29   36 ar
  70   29   40 ar
  71   30   31 ar
  72   30   35 ar
  73   31   32 ar
  74   31   78 1
  75   32   33 ar
  76   32   79 1
  77   33   34 ar
  78   33   80 1
  79   34   35 ar
  80   34   81 1
  81   35   82 1
  82   36   37 ar
  83   36   83 1
  84   37   38 ar
  85   37   84 1
  86   38   39 ar
  87   38   85 1
  88   39   40 ar
  89   39   86 1
  90   40   87 1
  91   41   88 1
  92   41   89 1

#	End of record

