#	Name: ASD03240417
#	Creating user name:	WinNT
#	Creation time:	15. 06. 2019 20:34

#	Modifying user name:	WinNT
#	Modification time:	15. 06. 2019 20:34

#	Program:	/corina/corina34_cracker 3.40 0067  02.08.2006

@<TRIPOS>MOLECULE
ASD03240417
  62   65    0    0    0
SMALL
NO_CHARGES


@<TRIPOS>ATOM
   1 C1            -0.0652     1.4706    -0.0590 C.ar    
   2 C2            -1.0064     1.7205     0.9240 C.ar    
   3 C3             2.5430     0.3954    -1.2624 C.ar    
   4 C4             2.1161     1.7080    -1.1730 C.ar    
   5 C5             1.2800     2.1472     0.0014 C.3     
   6 C6             3.3089    -0.0122    -2.3359 C.ar    
   7 C7             3.6519     0.9010    -3.3303 C.ar    
   8 C8             3.2198     2.2219    -3.2350 C.ar    
   9 C9             2.4542     2.6189    -2.1573 C.ar    
  10 C10            4.4760     0.4684    -4.4871 C.2     
  11 C11           -2.2396     1.1042     0.8751 C.ar    
  12 C12           -2.5369     0.2265    -0.1694 C.ar    
  13 C13           -1.5824    -0.0211    -1.1579 C.ar    
  14 C14           -0.3513     0.5980    -1.0940 C.ar    
  15 C15            4.8824     1.2537    -5.5261 C.2     
  16 N16            5.6080     0.4826    -6.3607 N.pl3   
  17 N17            5.6551    -0.8123    -5.8303 N.2     
  18 C18            4.9854    -0.8260    -4.7083 C.2     
  19 C19            1.0900     3.6650    -0.0474 C.3     
  20 C20            0.2111     4.1036     1.1282 C.3     
  21 C21            1.1180     2.1787     2.4938 C.3     
  22 C22            1.9867     1.7617     1.3029 C.3     
  23 C23           -3.8552    -0.4375    -0.2280 C.2     
  24 O24           -4.6834    -0.2204     0.6336 O.2     
  25 O25           -4.1389    -1.2837    -1.2371 O.3     
  26 N26            0.8096     3.6101     2.3760 N.am    
  27 O27            1.6199     3.9889     4.5309 O.3     
  28 C28            1.8741     4.9556     5.5842 C.3     
  29 C29            0.5571     5.6128     6.0019 C.3     
  30 C30            2.4944     4.2456     6.7892 C.3     
  31 C31            2.8385     6.0269     5.0713 C.3     
  32 C32            1.0712     4.4548     3.3931 C.2     
  33 O33            0.8119     5.6368     3.2832 O.2     
  34 H34           -0.7750     2.3993     1.7315 H       
  35 H35            2.2802    -0.3108    -0.4887 H       
  36 H36            3.6420    -1.0373    -2.4046 H       
  37 H37            3.4829     2.9339    -4.0033 H       
  38 H38            2.1184     3.6427    -2.0827 H       
  39 H39           -2.9732     1.2998     1.6431 H       
  40 H40           -1.8058    -0.6991    -1.9684 H       
  41 H41            0.3879     0.4074    -1.8579 H       
  42 H42            4.6626     2.3031    -5.6564 H       
  43 H43            6.0252     0.7744    -7.1863 H       
  44 H44            4.8416    -1.6823    -4.0661 H       
  45 H45            2.0609     4.1556     0.0214 H       
  46 H46            0.6078     3.9413    -0.9850 H       
  47 H47            0.1539     5.1917     1.1557 H       
  48 H48           -0.7890     3.6858     1.0125 H       
  49 H49            0.1919     1.6038     2.4896 H       
  50 H50            1.6592     1.9968     3.4223 H       
  51 H51            2.1428     0.6832     1.3264 H       
  52 H52            2.9491     2.2704     1.3589 H       
  53 H53           -5.0144    -1.6942    -1.2328 H       
  54 H54           -0.1300     4.8496     6.3673 H       
  55 H55            0.7479     6.3385     6.7925 H       
  56 H56            0.1152     6.1186     5.1434 H       
  57 H57            3.4327     3.7773     6.4916 H       
  58 H58            2.6853     4.9712     7.5798 H       
  59 H59            1.8073     3.4824     7.1546 H       
  60 H60            2.3966     6.5327     4.2128 H       
  61 H61            3.0294     6.7525     5.8619 H       
  62 H62            3.7768     5.5586     4.7737 H       
@<TRIPOS>BOND
   1    1    2 ar
   2    1    5 1
   3    1   14 ar
   4    2   11 ar
   5    2   34 1
   6    3    4 ar
   7    3    6 ar
   8    3   35 1
   9    4    5 1
  10    4    9 ar
  11    5   19 1
  12    5   22 1
  13    6    7 ar
  14    6   36 1
  15    7    8 ar
  16    7   10 1
  17    8    9 ar
  18    8   37 1
  19    9   38 1
  20   10   15 2
  21   10   18 1
  22   11   12 ar
  23   11   39 1
  24   12   13 ar
  25   12   23 1
  26   13   14 ar
  27   13   40 1
  28   14   41 1
  29   15   16 1
  30   15   42 1
  31   16   17 1
  32   16   43 1
  33   17   18 2
  34   18   44 1
  35   19   20 1
  36   19   45 1
  37   19   46 1
  38   20   26 1
  39   20   47 1
  40   20   48 1
  41   21   22 1
  42   21   26 1
  43   21   49 1
  44   21   50 1
  45   22   51 1
  46   22   52 1
  47   23   24 2
  48   23   25 1
  49   25   53 1
  50   26   32 am
  51   27   28 1
  52   27   32 1
  53   28   29 1
  54   28   30 1
  55   28   31 1
  56   29   54 1
  57   29   55 1
  58   29   56 1
  59   30   57 1
  60   30   58 1
  61   30   59 1
  62   31   60 1
  63   31   61 1
  64   31   62 1
  65   32   33 2

#	End of record

