#	Name: ASD01910777
#	Creating user name:	WinNT
#	Creation time:	15. 06. 2019 19:56

#	Modifying user name:	WinNT
#	Modification time:	15. 06. 2019 19:56

#	Program:	/corina/corina34_cracker 3.40 0067  02.08.2006

@<TRIPOS>MOLECULE
ASD01910777
  48   51    0    0    0
SMALL
NO_CHARGES


@<TRIPOS>ATOM
   1 C1            -0.1194     1.7530     0.3944 C.ar    
   2 C2            -0.0241     0.3662     0.4053 C.ar    
   3 N3            -1.1313    -0.3560     0.3515 N.ar    
   4 C4            -2.3186     0.2271     0.2881 C.ar    
   5 N5            -2.4467     1.5451     0.2758 N.ar    
   6 C6            -1.3828     2.3295     0.3329 C.ar    
   7 N7            -3.4568    -0.5627     0.2326 N.3     
   8 C8            -4.6689     0.2646     0.1669 C.3     
   9 C9            -5.8852    -0.6355    -0.0750 C.3     
  10 N10           -5.9030    -1.6840     0.9564 N.am    
  11 C11           -4.6764    -2.4655     1.1754 C.3     
  12 C12           -3.5077    -1.4933     1.3681 C.3     
  13 C13           -7.0140    -1.9225     1.6812 C.2     
  14 C14           -7.0510    -3.0606     2.6245 C.ar    
  15 O15           -7.9854    -1.2022     1.5595 O.2     
  16 C16           -7.6775    -2.9212     3.8650 C.ar    
  17 C17           -7.7131    -3.9825     4.7482 C.ar    
  18 C18           -7.1308    -5.1880     4.4126 C.ar    
  19 C19           -6.5000    -5.3422     3.1740 C.ar    
  20 C20           -6.4662    -4.2759     2.2754 C.ar    
  21 C21           -5.8952    -6.5929     2.8270 C.1     
  22 C22           -5.3994    -7.6184     2.5425 C.1     
  23 C23           -4.7946    -8.8692     2.1956 C.ar    
  24 N24           -4.1967    -9.0086     1.0162 N.ar    
  25 C25           -3.6292   -10.1427     0.6605 C.ar    
  26 C26           -3.6349   -11.2366     1.5066 C.ar    
  27 C27           -4.2482   -11.1357     2.7483 C.ar    
  28 C28           -4.8321    -9.9328     3.1012 C.ar    
  29 O29            0.9974     2.5278     0.4483 O.3     
  30 H30            0.9413    -0.1155     0.4565 H       
  31 H31           -1.4941     3.4038     0.3229 H       
  32 H32           -4.7946     0.8010     1.1075 H       
  33 H33           -4.5773     0.9797    -0.6506 H       
  34 H34           -6.7978    -0.0430    -0.0105 H       
  35 H35           -5.8115    -1.0934    -1.0614 H       
  36 H36           -4.7899    -3.0828     2.0666 H       
  37 H37           -4.4865    -3.0993     0.3092 H       
  38 H38           -2.5740    -2.0531     1.4217 H       
  39 H39           -3.6496    -0.9325     2.2919 H       
  40 H40           -8.1350    -1.9807     4.1346 H       
  41 H41           -8.1986    -3.8685     5.7061 H       
  42 H42           -7.1619    -6.0137     5.1081 H       
  43 H43           -5.9806    -4.3889     1.3174 H       
  44 H44           -3.1529   -10.2196    -0.3057 H       
  45 H45           -3.1667   -12.1616     1.2040 H       
  46 H46           -4.2653   -11.9770     3.4253 H       
  47 H47           -5.3173    -9.8196     4.0594 H       
  48 H48            1.3655     2.7481    -0.4183 H       
@<TRIPOS>BOND
   1    1    2 ar
   2    1   29 1
   3    1    6 ar
   4    2    3 ar
   5    2   30 1
   6    3    4 ar
   7    4    5 ar
   8    4    7 1
   9    5    6 ar
  10    6   31 1
  11    7    8 1
  12    7   12 1
  13    8    9 1
  14    8   32 1
  15    8   33 1
  16    9   10 1
  17    9   34 1
  18    9   35 1
  19   10   11 1
  20   10   13 am
  21   11   12 1
  22   11   36 1
  23   11   37 1
  24   12   38 1
  25   12   39 1
  26   13   14 1
  27   13   15 2
  28   14   16 ar
  29   14   20 ar
  30   16   17 ar
  31   16   40 1
  32   17   18 ar
  33   17   41 1
  34   18   19 ar
  35   18   42 1
  36   19   20 ar
  37   19   21 1
  38   20   43 1
  39   21   22 3
  40   22   23 1
  41   23   24 ar
  42   23   28 ar
  43   24   25 ar
  44   25   26 ar
  45   25   44 1
  46   26   27 ar
  47   26   45 1
  48   27   28 ar
  49   27   46 1
  50   28   47 1
  51   29   48 1

#	End of record

