#	Name: ASD04230046
#	Creating user name:	WinNT
#	Creation time:	15. 06. 2019 20:48

#	Modifying user name:	WinNT
#	Modification time:	15. 06. 2019 20:48

#	Program:	/corina/corina34_cracker 3.40 0067  02.08.2006

@<TRIPOS>MOLECULE
ASD04230046
  25   26    0    0    0
SMALL
NO_CHARGES


@<TRIPOS>ATOM
   1 N1            -0.0169     1.3927     0.0097 N.pl3   
   2 C2             1.2256    -2.0745    -0.0203 C.ar    
   3 C3             1.2120    -0.6812    -0.0132 C.ar    
   4 C4             0.0021    -0.0041     0.0020 C.ar    
   5 C5            -1.1922    -0.7157     0.0101 C.ar    
   6 C6            -1.1777    -2.0974     0.0034 C.ar    
   7 C7             0.0225    -2.7796    -0.0117 C.ar    
   8 C8             2.5148    -2.8049    -0.0427 C.ar    
   9 C9             2.7588    -3.8385     0.8803 C.ar    
  10 C10            3.9772    -4.5178     0.8470 C.ar    
  11 C11            4.9326    -4.1739    -0.0869 C.ar    
  12 C12            4.6913    -3.1561    -0.9944 C.ar    
  13 C13            3.4893    -2.4766    -0.9803 C.ar    
  14 C14            1.7635    -4.1907     1.8477 C.1     
  15 N15            0.9739    -4.4701     2.6151 N.1     
  16 H16            0.8165     1.8891     0.0044 H       
  17 H17           -0.8634     1.8663     0.0163 H       
  18 H18            2.1410    -0.1303    -0.0194 H       
  19 H19           -2.1339    -0.1871     0.0219 H       
  20 H20           -2.1083    -2.6455     0.0104 H       
  21 H21            0.0296    -3.8595    -0.0172 H       
  22 H22            4.1723    -5.3121     1.5523 H       
  23 H23            5.8746    -4.7014    -0.1102 H       
  24 H24            5.4465    -2.8950    -1.7209 H       
  25 H25            3.3071    -1.6871    -1.6943 H       
@<TRIPOS>BOND
   1    1    4 1
   2    1   16 1
   3    1   17 1
   4    2    3 ar
   5    2    7 ar
   6    2    8 1
   7    3    4 ar
   8    3   18 1
   9    4    5 ar
  10    5    6 ar
  11    5   19 1
  12    6    7 ar
  13    6   20 1
  14    7   21 1
  15    8    9 ar
  16    8   13 ar
  17    9   10 ar
  18    9   14 1
  19   10   11 ar
  20   10   22 1
  21   11   12 ar
  22   11   23 1
  23   12   13 ar
  24   12   24 1
  25   13   25 1
  26   14   15 3

#	End of record

