#	Name: ASD01900509
#	Creating user name:	WinNT
#	Creation time:	15. 06. 2019 19:52

#	Modifying user name:	WinNT
#	Modification time:	15. 06. 2019 19:52

#	Program:	/corina/corina34_cracker 3.40 0067  02.08.2006

@<TRIPOS>MOLECULE
ASD01900509
  26   28    0    0    0
SMALL
NO_CHARGES


@<TRIPOS>ATOM
   1 C1             0.3504     0.3315    -0.8802 C.1     
   2 C2             0.1269     1.5748    -0.2056 C.ar    
   3 C3             1.0978     2.0882     0.6572 C.ar    
   4 C4             0.8795     3.2874     1.3064 C.ar    
   5 C5            -0.2993     3.9832     1.1055 C.ar    
   6 C6            -1.2714     3.4800     0.2492 C.ar    
   7 C7            -1.0588     2.2799    -0.4126 C.ar    
   8 N8             0.5277    -0.6547    -1.4153 N.1     
   9 N9            -2.4608     4.1867     0.0500 N.pl3   
  10 C10           -3.6590     6.4421     0.0913 C.ar    
  11 C11           -3.1911     7.7540     0.2564 C.ar    
  12 C12           -4.1046     8.8046     0.2378 C.ar    
  13 C13           -5.4424     8.5063     0.0561 C.ar    
  14 C14           -5.8336     7.1843    -0.1009 C.ar    
  15 N15           -4.9549     6.2068    -0.0802 N.ar    
  16 O16           -1.8537     7.6901     0.4081 O.3     
  17 N17           -1.4371     6.3409     0.3438 N.2     
  18 C18           -2.4734     5.5709     0.1629 C.2     
  19 Cl19           2.0878     3.9234     2.3784 Cl      
  20 H20            2.0188     1.5473     0.8169 H       
  21 H21           -0.4649     4.9204     1.6161 H       
  22 H22           -1.8112     1.8900    -1.0822 H       
  23 H23           -3.2774     3.7103    -0.1670 H       
  24 H24           -3.7768     9.8260     0.3624 H       
  25 H25           -6.1779     9.2969     0.0368 H       
  26 H26           -6.8793     6.9542    -0.2423 H       
@<TRIPOS>BOND
   1    1    2 1
   2    1    8 3
   3    2    3 ar
   4    2    7 ar
   5    3    4 ar
   6    3   20 1
   7    4    5 ar
   8    4   19 1
   9    5    6 ar
  10    5   21 1
  11    6    7 ar
  12    6    9 1
  13    7   22 1
  14    9   18 1
  15    9   23 1
  16   10   11 ar
  17   10   15 ar
  18   10   18 1
  19   11   12 ar
  20   11   16 1
  21   12   13 ar
  22   12   24 1
  23   13   14 ar
  24   13   25 1
  25   14   15 ar
  26   14   26 1
  27   16   17 1
  28   17   18 2

#	End of record

