#	Name: ASD00431441
#	Creating user name:	WinNT
#	Creation time:	15. 06. 2019 18:35

#	Modifying user name:	WinNT
#	Modification time:	15. 06. 2019 18:35

#	Program:	/corina/corina34_cracker 3.40 0067  02.08.2006

@<TRIPOS>MOLECULE
ASD00431441
  45   47    0    0    0
SMALL
NO_CHARGES


@<TRIPOS>ATOM
   1 C1            -0.4683     3.4084    -0.3079 C.3     
   2 C2            -0.8876     1.9447    -0.1572 C.3     
   3 O3             1.8971     3.2556    -1.2365 O.3     
   4 N4             3.0435     3.4229    -0.8904 N.2     
   5 C5             3.1144     3.8060     0.3605 C.2     
   6 C6             1.7725     3.8751     0.8293 C.2     
   7 C7             1.0339     3.5099    -0.2427 C.2     
   8 C8             4.2717     4.4042     2.4908 C.ar    
   9 C9             4.3453     4.1063     1.1327 C.ar    
  10 C10            5.5963     4.0938     0.5066 C.ar    
  11 C11            6.7140     4.3793     1.2668 C.ar    
  12 C12            6.5606     4.6674     2.6181 C.ar    
  13 N13            5.3623     4.6710     3.1803 N.ar    
  14 O14            7.6533     4.9481     3.3705 O.3     
  15 C15            7.4952     6.3911     5.2600 C.ar    
  16 C16            7.4803     5.1200     4.7083 C.ar    
  17 C17            7.2856     4.0212     5.5405 C.ar    
  18 C18            7.1133     4.2432     6.8956 C.ar    
  19 C19            7.1402     5.5453     7.3770 C.ar    
  20 N20            7.3276     6.5656     6.5570 N.ar    
  21 O21            6.9718     5.7736     8.7045 O.3     
  22 C22            7.0095     7.1345     9.1387 C.3     
  23 C23            5.5979     7.7230     9.0952 C.3     
  24 C24            7.5447     7.1983    10.5706 C.3     
  25 N25           -0.9381     3.9217    -1.6016 N.3     
  26 H26           -0.9075     3.9969     0.4976 H       
  27 H27           -0.4484     1.3562    -0.9627 H       
  28 H28           -0.5390     1.5639     0.8028 H       
  29 H29           -1.9741     1.8713    -0.2043 H       
  30 H30            1.4249     4.1541     1.8130 H       
  31 H31            3.3106     4.4210     2.9831 H       
  32 H32            5.6861     3.8661    -0.5453 H       
  33 H33            7.6957     4.3783     0.8166 H       
  34 H34            7.6502     7.2483     4.6216 H       
  35 H35            7.2690     3.0191     5.1381 H       
  36 H36            6.9595     3.4139     7.5703 H       
  37 H37            7.6626     7.7078     8.4808 H       
  38 H38            5.2166     7.6775     8.0751 H       
  39 H39            4.9448     7.1497     9.7531 H       
  40 H40            5.6267     8.7611     9.4264 H       
  41 H41            8.5504     6.7791    10.6016 H       
  42 H42            7.5735     8.2364    10.9018 H       
  43 H43            6.8916     6.6250    11.2285 H       
  44 H44           -0.4953     3.4345    -2.3663 H       
  45 H45           -1.9432     3.8644    -1.6700 H       
@<TRIPOS>BOND
   1    1    2 1
   2    1    7 1
   3    1   25 1
   4    1   26 1
   5    2   27 1
   6    2   28 1
   7    2   29 1
   8    3    4 1
   9    3    7 1
  10    4    5 2
  11    5    6 1
  12    5    9 1
  13    6    7 2
  14    6   30 1
  15    8    9 ar
  16    8   13 ar
  17    8   31 1
  18    9   10 ar
  19   10   11 ar
  20   10   32 1
  21   11   12 ar
  22   11   33 1
  23   12   13 ar
  24   12   14 1
  25   14   16 1
  26   15   16 ar
  27   15   20 ar
  28   15   34 1
  29   16   17 ar
  30   17   18 ar
  31   17   35 1
  32   18   19 ar
  33   18   36 1
  34   19   20 ar
  35   19   21 1
  36   21   22 1
  37   22   23 1
  38   22   24 1
  39   22   37 1
  40   23   38 1
  41   23   39 1
  42   23   40 1
  43   24   41 1
  44   24   42 1
  45   24   43 1
  46   25   44 1
  47   25   45 1

#	End of record

