#	Name: ASD03091987
#	Creating user name:	WinNT
#	Creation time:	15. 06. 2019 20:31

#	Modifying user name:	WinNT
#	Modification time:	15. 06. 2019 20:31

#	Program:	/corina/corina34_cracker 3.40 0067  02.08.2006

@<TRIPOS>MOLECULE
ASD03091987
  61   66    0    0    0
SMALL
NO_CHARGES


@<TRIPOS>ATOM
   1 C1             0.0096     1.4351     0.1831 C.ar    
   2 C2            -1.1935     2.1635     0.1881 C.ar    
   3 C3            -2.4260     1.4647     0.1393 C.ar    
   4 C4            -2.4322     0.0570     0.0839 C.ar    
   5 C5            -1.2636    -0.6338     0.0790 C.ar    
   6 C6            -0.0343     0.0414     0.1292 C.ar    
   7 O7             1.2132     2.0504     0.2349 O.3     
   8 C8             2.2632     1.3771     0.9296 C.3     
   9 N9             2.3611    -0.0171     0.4950 N.am    
  10 C10            1.2464    -0.6929     0.1319 C.2     
  11 C11           -3.7425    -0.6856     0.0302 C.3     
  12 N12           -4.3592    -0.6876     1.3635 N.3     
  13 O13            1.2980    -1.8666    -0.1824 O.2     
  14 C14            3.6662    -0.6812     0.4531 C.3     
  15 C15            4.5887     0.0299    -0.5584 C.3     
  16 C16            4.3550    -0.5768     1.8251 C.3     
  17 C17            5.6721     0.1941     1.5995 C.3     
  18 C18            5.4180     1.0103     0.3078 C.3     
  19 O19            4.6333    -1.8829     2.3338 O.3     
  20 C20           -3.6273     2.1922     0.1466 C.ar    
  21 C21           -1.1978     3.5666     0.2399 C.ar    
  22 C22           -3.5937     3.5526     0.1986 C.ar    
  23 C23           -2.3824     4.2385     0.2443 C.ar    
  24 C24           -3.4291    -1.2325     2.3772 C.3     
  25 C25           -4.3356    -1.9745     3.3945 C.3     
  26 C26           -5.4236    -2.5503     2.4728 C.3     
  27 C27           -5.5940    -1.4996     1.3748 C.3     
  28 C28           -5.0141    -3.9122     1.9047 C.3     
  29 C29           -6.7285    -2.8011     3.2343 C.3     
  30 C30           -6.9801    -4.3155     3.0344 C.3     
  31 O31           -5.6760    -4.8750     2.7593 O.3     
  32 H32           -1.2800    -1.7128     0.0365 H       
  33 H33            3.2079     1.8826     0.7294 H       
  34 H34            2.0614     1.4060     2.0004 H       
  35 H35           -4.4097    -0.1945    -0.6780 H       
  36 H36           -3.5653    -1.7125    -0.2896 H       
  37 H37            3.5434    -1.7281     0.1757 H       
  38 H38            5.2421    -0.6904    -1.0507 H       
  39 H39            3.9987     0.5764    -1.2941 H       
  40 H40            3.7182    -0.0320     2.5221 H       
  41 H41            5.8726     0.8604     2.4385 H       
  42 H42            6.5004    -0.4997     1.4556 H       
  43 H43            6.3587     1.2588    -0.1834 H       
  44 H44            4.8454     1.9115     0.5267 H       
  45 H45            5.0681    -1.8842     3.1976 H       
  46 H46           -4.5745     1.6746     0.1108 H       
  47 H47           -0.2656     4.1107     0.2765 H       
  48 H48           -4.5200     4.1079     0.2035 H       
  49 H49           -2.3825     5.3177     0.2848 H       
  50 H50           -2.7298    -1.9288     1.9144 H       
  51 H51           -2.8895    -0.4237     2.8700 H       
  52 H52           -3.7878    -2.7712     3.8978 H       
  53 H53           -4.7631    -1.2793     4.1170 H       
  54 H54           -6.4539    -0.8669     1.5948 H       
  55 H55           -5.7275    -1.9878     0.4094 H       
  56 H56           -5.3600    -4.0151     0.8762 H       
  57 H57           -3.9325    -4.0369     1.9576 H       
  58 H58           -6.6060    -2.5689     4.2923 H       
  59 H59           -7.5421    -2.2170     2.8041 H       
  60 H60           -7.3971    -4.7536     3.9412 H       
  61 H61           -7.6494    -4.4806     2.1901 H       
@<TRIPOS>BOND
   1    1    6 ar
   2    1    7 1
   3    1    2 ar
   4    2    3 ar
   5    2   21 ar
   6    3    4 ar
   7    3   20 ar
   8    4    5 ar
   9    4   11 1
  10    5    6 ar
  11    5   32 1
  12    6   10 1
  13    7    8 1
  14    8    9 1
  15    8   33 1
  16    8   34 1
  17    9   10 am
  18    9   14 1
  19   10   13 2
  20   11   12 1
  21   11   35 1
  22   11   36 1
  23   12   27 1
  24   12   24 1
  25   14   16 1
  26   14   15 1
  27   14   37 1
  28   15   18 1
  29   15   38 1
  30   15   39 1
  31   16   17 1
  32   16   19 1
  33   16   40 1
  34   17   18 1
  35   17   41 1
  36   17   42 1
  37   18   43 1
  38   18   44 1
  39   19   45 1
  40   20   22 ar
  41   20   46 1
  42   21   23 ar
  43   21   47 1
  44   22   23 ar
  45   22   48 1
  46   23   49 1
  47   24   25 1
  48   24   50 1
  49   24   51 1
  50   25   26 1
  51   25   52 1
  52   25   53 1
  53   26   27 1
  54   26   29 1
  55   26   28 1
  56   27   54 1
  57   27   55 1
  58   28   31 1
  59   28   56 1
  60   28   57 1
  61   29   30 1
  62   29   58 1
  63   29   59 1
  64   30   31 1
  65   30   60 1
  66   30   61 1

#	End of record

