#	Name: ASD04882437
#	Creating user name:	WinNT
#	Creation time:	15. 06. 2019 20:54

#	Modifying user name:	WinNT
#	Modification time:	15. 06. 2019 20:54

#	Program:	/corina/corina34_cracker 3.40 0067  02.08.2006

@<TRIPOS>MOLECULE
ASD04882437
  78   82    0    0    0
SMALL
NO_CHARGES


@<TRIPOS>ATOM
   1 C1            -0.5567     0.5767    -0.5766 C.ar    
   2 C2            -0.3374    -0.7930    -0.4059 C.ar    
   3 C3            -1.4159    -1.6646    -0.3074 C.ar    
   4 C4            -2.7039    -1.1820    -0.3775 C.ar    
   5 C5            -2.9303     0.1866    -0.5481 C.ar    
   6 C6            -1.8477     1.0657    -0.6423 C.ar    
   7 N7             0.9632    -1.2853    -0.3350 N.3     
   8 C8             1.6605    -1.1172    -1.6170 C.3     
   9 C9             0.9717    -2.6896     0.0961 C.3     
  10 C10            2.4173    -3.1381     0.3360 C.3     
  11 N11            3.2015    -2.8547    -0.8756 N.am    
  12 C12            3.1342    -1.5012    -1.4473 C.3     
  13 C13           -4.3101     0.7033    -0.6237 C.2     
  14 O14           -4.5061     1.8941    -0.7721 O.2     
  15 N15           -5.3533    -0.1446    -0.5282 N.am    
  16 N16            0.5313     1.4541    -0.6753 N.am    
  17 C17            0.4455     2.5488    -1.4568 C.2     
  18 C18            1.6231     3.4156    -1.6431 C.2     
  19 N19            2.8557     3.2330    -1.0965 N.2     
  20 C20            3.9620    -3.8098    -1.4465 C.2     
  21 O21            4.0908    -4.8870    -0.9044 O.2     
  22 C22           -6.7235     0.3684    -0.6032 C.3     
  23 C23           -7.7109    -0.7925    -0.4686 C.3     
  24 C24           -9.1419    -0.2567    -0.5470 C.3     
  25 N25          -10.0873    -1.3684    -0.4182 N.am    
  26 C26          -10.5866    -1.8078     0.7499 C.2     
  27 C27          -10.6158    -2.1412    -1.5484 C.3     
  28 C28          -11.1938    -3.4333    -0.9297 C.3     
  29 C29          -11.5219    -2.9726     0.5106 C.3     
  30 O30           -0.6037     2.8215    -2.0085 O.2     
  31 C31            1.6837     4.5459    -2.3988 C.2     
  32 O32            2.9345     5.0220    -2.2911 O.3     
  33 C33            3.6282     4.2008    -1.4903 C.2     
  34 C34            5.0755     4.3729    -1.1071 C.3     
  35 C35            6.1089     4.3804    -2.2354 C.3     
  36 C36            5.7616     5.6805    -1.5074 C.3     
  37 C37            4.6523    -3.5392    -2.7585 C.3     
  38 C38            5.8561    -2.6247    -2.5223 C.3     
  39 C39            5.1271    -4.8602    -3.3670 C.3     
  40 O40          -10.3249    -1.3392     1.8375 O.2     
  41 H41           -1.2434    -2.7226    -0.1759 H       
  42 H42           -3.5397    -1.8617    -0.3010 H       
  43 H43           -2.0196     2.1238    -0.7741 H       
  44 H44            1.2012    -1.7601    -2.3678 H       
  45 H45            1.5900    -0.0772    -1.9357 H       
  46 H46            0.4017    -2.7900     1.0197 H       
  47 H47            0.5220    -3.3106    -0.6786 H       
  48 H48            2.8357    -2.5893     1.1797 H       
  49 H49            2.4390    -4.2078     0.5443 H       
  50 H50            3.6300    -1.4887    -2.4180 H       
  51 H51            3.6216    -0.7951    -0.7750 H       
  52 H52           -5.1970    -1.0946    -0.4098 H       
  53 H53            1.3463     1.2737    -0.1812 H       
  54 H54           -6.8891     1.0817     0.2042 H       
  55 H55           -6.8739     0.8640    -1.5623 H       
  56 H56           -7.5453    -1.5058    -1.2761 H       
  57 H57           -7.5605    -1.2881     0.4905 H       
  58 H58           -9.3075     0.4565     0.2604 H       
  59 H59           -9.2923     0.2388    -1.5061 H       
  60 H60          -11.4020    -1.5806    -2.0539 H       
  61 H61           -9.8150    -2.3831    -2.2472 H       
  62 H62          -12.0975    -3.7459    -1.4529 H       
  63 H63          -10.4508    -4.2308    -0.9270 H       
  64 H64          -11.3231    -3.7740     1.2221 H       
  65 H65          -12.5602    -2.6483     0.5802 H       
  66 H66            0.8790     4.9777    -2.9753 H       
  67 H67            5.3680     3.9201    -0.1598 H       
  68 H68            7.0814     3.9330    -2.0302 H       
  69 H69            5.7419     4.2609    -3.2548 H       
  70 H70            5.1662     6.4164    -2.0478 H       
  71 H71            6.5057     6.0884    -0.8232 H       
  72 H72            3.9559    -3.0537    -3.4421 H       
  73 H73            6.5093    -3.0704    -1.7722 H       
  74 H74            6.4060    -2.4999    -3.4550 H       
  75 H75            5.5103    -1.6524    -2.1714 H       
  76 H76            4.2696    -5.5117    -3.5352 H       
  77 H77            5.6264    -4.6645    -4.3159 H       
  78 H78            5.8236    -5.3456    -2.6833 H       
@<TRIPOS>BOND
   1    1    2 ar
   2    1   16 1
   3    1    6 ar
   4    2    3 ar
   5    2    7 1
   6    3    4 ar
   7    3   41 1
   8    4    5 ar
   9    4   42 1
  10    5    6 ar
  11    5   13 1
  12    6   43 1
  13    7    8 1
  14    7    9 1
  15    8   12 1
  16    8   44 1
  17    8   45 1
  18    9   10 1
  19    9   46 1
  20    9   47 1
  21   10   11 1
  22   10   48 1
  23   10   49 1
  24   11   12 1
  25   11   20 am
  26   12   50 1
  27   12   51 1
  28   13   14 2
  29   13   15 am
  30   15   22 1
  31   15   52 1
  32   16   17 am
  33   16   53 1
  34   17   18 1
  35   17   30 2
  36   18   31 2
  37   18   19 1
  38   19   33 2
  39   20   21 2
  40   20   37 1
  41   22   23 1
  42   22   54 1
  43   22   55 1
  44   23   24 1
  45   23   56 1
  46   23   57 1
  47   24   25 1
  48   24   58 1
  49   24   59 1
  50   25   26 am
  51   25   27 1
  52   26   40 2
  53   26   29 1
  54   27   28 1
  55   27   60 1
  56   27   61 1
  57   28   29 1
  58   28   62 1
  59   28   63 1
  60   29   64 1
  61   29   65 1
  62   31   32 1
  63   31   66 1
  64   32   33 1
  65   33   34 1
  66   34   35 1
  67   34   36 1
  68   34   67 1
  69   35   36 1
  70   35   68 1
  71   35   69 1
  72   36   70 1
  73   36   71 1
  74   37   38 1
  75   37   39 1
  76   37   72 1
  77   38   73 1
  78   38   74 1
  79   38   75 1
  80   39   76 1
  81   39   77 1
  82   39   78 1

#	End of record

