#	Name: ASD01410297
#	Creating user name:	WinNT
#	Creation time:	15. 06. 2019 19:17

#	Modifying user name:	WinNT
#	Modification time:	15. 06. 2019 19:17

#	Program:	/corina/corina34_cracker 3.40 0067  02.08.2006

@<TRIPOS>MOLECULE
ASD01410297
  58   62    0    0    0
SMALL
NO_CHARGES


@<TRIPOS>ATOM
   1 O1             0.8191     1.4584     0.2036 O.3     
   2 C2             0.7855     0.1193     0.1575 C.2     
   3 C3             2.0621    -0.3391     0.0458 C.2     
   4 C4             2.9138     0.8572     0.0258 C.2     
   5 C5             2.0814     1.9063     0.1259 C.2     
   6 N6             3.2638    -2.2848    -1.0470 N.pl3   
   7 C7             2.5005    -1.7486    -0.0379 C.2     
   8 C8             2.2126    -2.7158     0.8707 C.2     
   9 C9             2.8134    -3.9185     0.4287 C.ar    
  10 C10            3.4717    -3.6244    -0.7831 C.ar    
  11 C11            2.8544    -5.2201     0.9499 C.ar    
  12 C12            3.5288    -6.1984     0.2867 C.ar    
  13 C13            4.1869    -5.9150    -0.9199 C.ar    
  14 C14            4.1558    -4.6259    -1.4517 C.ar    
  15 C15            0.1791    -3.4631     2.0772 C.3     
  16 C16           -0.6478    -3.2844     3.3520 C.3     
  17 C17            0.2096    -3.6360     4.5695 C.3     
  18 C18            1.4285    -2.7126     4.6187 C.3     
  19 C19            2.2554    -2.8913     3.3438 C.3     
  20 C20            1.3981    -2.5398     2.1263 C.3     
  21 C21            2.8355    -1.7661    -3.3787 C.ar    
  22 C22            2.0395    -0.7263    -3.8222 C.ar    
  23 C23            1.1879    -0.9166    -4.8941 C.ar    
  24 C24            1.1325    -2.1466    -5.5231 C.ar    
  25 C25            1.9290    -3.1857    -5.0803 C.ar    
  26 C26            2.7797    -2.9958    -4.0072 C.ar    
  27 C27            3.7685    -1.5568    -2.2139 C.3     
  28 C28            2.0999     0.6143    -3.1366 C.3     
  29 C29            4.9139    -6.9834    -1.6276 C.2     
  30 O30            5.4847    -6.7407    -2.6727 O.2     
  31 O31            4.9460    -8.2299    -1.1159 O.3     
  32 H32           -0.1036    -0.4922     0.2019 H       
  33 H33            3.9905     0.8871    -0.0532 H       
  34 H34            2.3802     2.9441     0.1407 H       
  35 H35            2.3507    -5.4459     1.8782 H       
  36 H36            3.5581    -7.1991     0.6918 H       
  37 H37            4.6626    -4.4098    -2.3806 H       
  38 H38            0.5106    -4.4987     2.0013 H       
  39 H39           -0.4317    -3.2127     1.2098 H       
  40 H40           -0.9793    -2.2488     3.4279 H       
  41 H41           -1.5162    -3.9422     3.3170 H       
  42 H42           -0.3795    -3.5087     5.4777 H       
  43 H43            0.5410    -4.6716     4.4936 H       
  44 H44            1.0971    -1.6770     4.6945 H       
  45 H45            2.0393    -2.9631     5.4860 H       
  46 H46            3.1239    -2.2335     3.3788 H       
  47 H47            2.5869    -3.9269     3.2680 H       
  48 H48            1.0666    -1.5042     2.2022 H       
  49 H49            0.5656    -0.1046    -5.2401 H       
  50 H50            0.4666    -2.2954    -6.3603 H       
  51 H51            1.8852    -4.1467    -5.5712 H       
  52 H52            3.4015    -3.8080    -3.6607 H       
  53 H53            3.8267    -0.4935    -1.9815 H       
  54 H54            4.7606    -1.9272    -2.4720 H       
  55 H55            2.9226     1.1973    -3.5504 H       
  56 H56            1.1618     1.1462    -3.2954 H       
  57 H57            2.2588     0.4691    -2.0681 H       
  58 H58            5.4356    -8.8972    -1.6160 H       
@<TRIPOS>BOND
   1    1    2 1
   2    1    5 1
   3    2    3 2
   4    2   32 1
   5    3    4 1
   6    3    7 1
   7    4    5 2
   8    4   33 1
   9    5   34 1
  10    6    7 1
  11    6   10 1
  12    6   27 1
  13    7    8 2
  14    8    9 1
  15    8   20 1
  16    9   10 ar
  17    9   11 ar
  18   10   14 ar
  19   11   12 ar
  20   11   35 1
  21   12   13 ar
  22   12   36 1
  23   13   14 ar
  24   13   29 1
  25   14   37 1
  26   15   16 1
  27   15   20 1
  28   15   38 1
  29   15   39 1
  30   16   17 1
  31   16   40 1
  32   16   41 1
  33   17   18 1
  34   17   42 1
  35   17   43 1
  36   18   19 1
  37   18   44 1
  38   18   45 1
  39   19   20 1
  40   19   46 1
  41   19   47 1
  42   20   48 1
  43   21   22 ar
  44   21   26 ar
  45   21   27 1
  46   22   23 ar
  47   22   28 1
  48   23   24 ar
  49   23   49 1
  50   24   25 ar
  51   24   50 1
  52   25   26 ar
  53   25   51 1
  54   26   52 1
  55   27   53 1
  56   27   54 1
  57   28   55 1
  58   28   56 1
  59   28   57 1
  60   29   30 2
  61   29   31 1
  62   31   58 1

#	End of record

