#	Name: ASD02030121
#	Creating user name:	WinNT
#	Creation time:	15. 06. 2019 20:14

#	Modifying user name:	WinNT
#	Modification time:	15. 06. 2019 20:14

#	Program:	/corina/corina34_cracker 3.40 0067  02.08.2006

@<TRIPOS>MOLECULE
ASD02030121
  58   62    0    0    0
SMALL
NO_CHARGES


@<TRIPOS>ATOM
   1 N1            -0.2509     1.2169     0.6238 N.am    
   2 C2            -0.5318    -0.2257     0.6266 C.3     
   3 C3            -1.6023    -0.5144     1.6863 C.3     
   4 N4            -2.7172     0.4239     1.4954 N.am    
   5 C5            -2.4363     1.8665     1.4926 C.3     
   6 C6            -1.3666     2.1554     0.4385 C.3     
   7 C7             1.0066     1.6711     0.7937 C.2     
   8 C8             2.0977     0.7253     1.1105 C.2     
   9 N9             3.3353     1.0472     1.4196 N.2     
  10 N10            1.9985    -0.6164     1.1394 N.2     
  11 C11            3.1770    -1.0867     1.4598 C.2     
  12 N12            4.0029    -0.0342     1.6321 N.pl3   
  13 O13            1.2435     2.8586     0.6864 O.2     
  14 C14           -3.9747    -0.0303     1.3255 C.2     
  15 C15           -4.2268    -1.4785     1.2173 C.2     
  16 O16           -4.9013     0.7546     1.2615 O.2     
  17 C17           -0.8634     3.5914     0.5977 C.3     
  18 C18           -1.9592     1.9673    -0.9595 C.3     
  19 C19            5.3580    -0.1050     1.9824 C.ar    
  20 C20            6.1003     1.0592     2.1290 C.ar    
  21 C21            7.4356     0.9862     2.4743 C.ar    
  22 C22            8.0334    -0.2447     2.6735 C.ar    
  23 C23            7.2968    -1.4059     2.5282 C.ar    
  24 C24            5.9595    -1.3392     2.1891 C.ar    
  25 N25           -3.3491    -2.4457     1.3763 N.2     
  26 N26           -3.8780    -3.6048     1.2181 N.pl3   
  27 C27           -5.2136    -3.5061     0.9271 C.ar    
  28 C28           -5.5091    -2.1288     0.9169 C.ar    
  29 C29           -6.2299    -4.4208     0.6702 C.ar    
  30 C30           -7.4947    -3.9743     0.4072 C.ar    
  31 C31           -7.7827    -2.6156     0.3923 C.ar    
  32 C32           -6.8041    -1.6955     0.6475 C.ar    
  33 C33           -3.1480    -4.8698     1.3334 C.3     
  34 H34           -0.8971    -0.5292    -0.3545 H       
  35 H35            0.3783    -0.7752     0.8669 H       
  36 H36           -1.9618    -1.5373     1.5740 H       
  37 H37           -1.1777    -0.3804     2.6812 H       
  38 H38           -3.3464     2.4160     1.2523 H       
  39 H39           -2.0710     2.1700     2.4737 H       
  40 H40            3.4398    -2.1285     1.5696 H       
  41 H41           -0.3400     3.6897     1.5488 H       
  42 H42           -0.1815     3.8301    -0.2185 H       
  43 H43           -1.7100     4.2776     0.5763 H       
  44 H44           -2.7955     2.6531    -1.0949 H       
  45 H45           -1.1951     2.1737    -1.7089 H       
  46 H46           -2.3093     0.9410    -1.0706 H       
  47 H47            5.6342     2.0208     1.9728 H       
  48 H48            8.0136     1.8914     2.5885 H       
  49 H49            9.0779    -0.2992     2.9428 H       
  50 H50            7.7665    -2.3658     2.6845 H       
  51 H51            5.3846    -2.2465     2.0762 H       
  52 H52           -6.0200    -5.4802     0.6782 H       
  53 H53           -8.2807    -4.6877     0.2079 H       
  54 H54           -8.7886    -2.2834     0.1819 H       
  55 H55           -7.0331    -0.6401     0.6351 H       
  56 H56           -3.1882    -5.2198     2.3649 H       
  57 H57           -3.6037    -5.6132     0.6794 H       
  58 H58           -2.1089    -4.7174     1.0416 H       
@<TRIPOS>BOND
   1    1    2 1
   2    1    7 am
   3    1    6 1
   4    2    3 1
   5    2   34 1
   6    2   35 1
   7    3    4 1
   8    3   36 1
   9    3   37 1
  10    4    5 1
  11    4   14 am
  12    5    6 1
  13    5   38 1
  14    5   39 1
  15    6   17 1
  16    6   18 1
  17    7    8 1
  18    7   13 2
  19    8    9 2
  20    8   10 1
  21    9   12 1
  22   10   11 2
  23   11   12 1
  24   11   40 1
  25   12   19 1
  26   14   15 1
  27   14   16 2
  28   15   25 2
  29   15   28 1
  30   17   41 1
  31   17   42 1
  32   17   43 1
  33   18   44 1
  34   18   45 1
  35   18   46 1
  36   19   20 ar
  37   19   24 ar
  38   20   21 ar
  39   20   47 1
  40   21   22 ar
  41   21   48 1
  42   22   23 ar
  43   22   49 1
  44   23   24 ar
  45   23   50 1
  46   24   51 1
  47   25   26 1
  48   26   27 1
  49   26   33 1
  50   27   28 ar
  51   27   29 ar
  52   28   32 ar
  53   29   30 ar
  54   29   52 1
  55   30   31 ar
  56   30   53 1
  57   31   32 ar
  58   31   54 1
  59   32   55 1
  60   33   56 1
  61   33   57 1
  62   33   58 1

#	End of record

