#	Name: ASD05730112
#	Creating user name:	WinNT
#	Creation time:	15. 06. 2019 21:02

#	Modifying user name:	WinNT
#	Modification time:	15. 06. 2019 21:02

#	Program:	/corina/corina34_cracker 3.40 0067  02.08.2006

@<TRIPOS>MOLECULE
ASD05730112
  68   73    0    0    0
SMALL
NO_CHARGES


@<TRIPOS>ATOM
   1 O1             0.1456     1.3032     1.0508 O.3     
   2 C2             0.1312    -0.0336     0.8021 C.ar    
   3 C3            -0.8589    -0.5784    -0.0023 C.ar    
   4 C4            -0.8740    -1.9358    -0.2557 C.ar    
   5 C5             0.1023    -2.7555     0.2950 C.ar    
   6 C6             1.0931    -2.2093     1.1002 C.ar    
   7 C7             1.1099    -0.8509     1.3483 C.ar    
   8 N8             0.0875    -4.1320     0.0389 N.pl3   
   9 C9             1.2730    -4.8077    -0.1729 C.ar    
  10 N10            1.2418    -6.1254    -0.3018 N.ar    
  11 C11            2.3613    -6.8104    -0.5070 C.ar    
  12 C12            3.5823    -6.1054    -0.5846 C.ar    
  13 C13            3.5621    -4.7095    -0.4416 C.ar    
  14 N14            2.4023    -4.1114    -0.2453 N.ar    
  15 N15            2.3362    -8.1753    -0.6410 N.am    
  16 C16            3.4714    -8.8694    -0.8486 C.2     
  17 C17            4.7578    -8.1743    -0.9352 C.2     
  18 C18            4.7927    -6.8010    -0.8025 C.2     
  19 C19            1.0585    -8.8871    -0.5566 C.3     
  20 C20            0.4493    -8.9902    -1.9311 C.2     
  21 O21            3.4283   -10.0811    -0.9645 O.2     
  22 C22            6.0064    -8.9363    -1.1629 C.ar    
  23 N23            6.1690    -9.6115    -2.2942 N.ar    
  24 C24            7.0065    -8.9347    -0.1887 C.ar    
  25 C25            8.1680    -9.6523    -0.4172 C.ar    
  26 C26            8.2929   -10.3485    -1.6118 C.ar    
  27 C27            7.2653   -10.3020    -2.5351 C.ar    
  28 N28            0.6524    -9.9596    -2.7581 N.2     
  29 C29           -0.8264     2.1001     0.3709 C.3     
  30 S30            9.7515   -11.2768    -1.9513 S.o2    
  31 C31            9.4005   -12.9292    -1.2904 C.3     
  32 O32            9.8223   -11.3119    -3.3701 O.2     
  33 O33           10.7611   -10.6366    -1.1830 O.2     
  34 C34           -2.1391     2.0864     1.1576 C.3     
  35 N35           -3.1318     2.9222     0.4703 N.3     
  36 C36           -2.6873     4.3196     0.3930 C.3     
  37 C37           -1.3910     4.3999    -0.4164 C.3     
  38 C38           -0.3190     3.5404     0.2592 C.3     
  39 C39            0.0392    -9.8942    -3.9228 C.2     
  40 C40           -0.7235    -8.8093    -4.0874 C.2     
  41 S41           -0.6169    -7.8434    -2.6176 S.3     
  42 Cl42           6.7967    -8.0453     1.2873 Cl      
  43 H43           -1.6184     0.0591    -0.4303 H       
  44 H44           -1.6452    -2.3599    -0.8818 H       
  45 H45            1.8529    -2.8461     1.5289 H       
  46 H46            1.8806    -0.4259     1.9743 H       
  47 H47           -0.7556    -4.6109     0.0103 H       
  48 H48            4.4761    -4.1366    -0.4947 H       
  49 H49            5.7296    -6.2672    -0.8627 H       
  50 H50            1.2255    -9.8874    -0.1572 H       
  51 H51            0.3815    -8.3416     0.1009 H       
  52 H52            8.9596    -9.6699     0.3174 H       
  53 H53            7.3602   -10.8431    -3.4649 H       
  54 H54           -0.9958     1.6949    -0.6267 H       
  55 H55            8.5275   -13.3442    -1.7943 H       
  56 H56           10.2599   -13.5781    -1.4590 H       
  57 H57            9.2030   -12.8584    -0.2208 H       
  58 H58           -2.5104     1.0639     1.2266 H       
  59 H59           -1.9659     2.4782     2.1599 H       
  60 H60           -3.3386     2.5572    -0.4474 H       
  61 H61           -3.4568     4.9192    -0.0932 H       
  62 H62           -2.5115     4.7009     1.3989 H       
  63 H63           -1.5694     4.0316    -1.4267 H       
  64 H64           -1.0530     5.4353    -0.4604 H       
  65 H65           -0.1124     3.9321     1.2552 H       
  66 H66            0.5931     3.5601    -0.3374 H       
  67 H67            0.1448   -10.6549    -4.6821 H       
  68 H68           -1.3055    -8.5689    -4.9648 H       
@<TRIPOS>BOND
   1    1    2 1
   2    1   29 1
   3    2    3 ar
   4    2    7 ar
   5    3    4 ar
   6    3   43 1
   7    4    5 ar
   8    4   44 1
   9    5    6 ar
  10    5    8 1
  11    6    7 ar
  12    6   45 1
  13    7   46 1
  14    8    9 1
  15    8   47 1
  16    9   10 ar
  17    9   14 ar
  18   10   11 ar
  19   11   12 ar
  20   11   15 1
  21   12   13 ar
  22   12   18 1
  23   13   14 ar
  24   13   48 1
  25   15   16 am
  26   15   19 1
  27   16   17 1
  28   16   21 2
  29   17   18 2
  30   17   22 1
  31   18   49 1
  32   19   20 1
  33   19   50 1
  34   19   51 1
  35   20   28 2
  36   20   41 1
  37   22   24 ar
  38   22   23 ar
  39   23   27 ar
  40   24   25 ar
  41   24   42 1
  42   25   26 ar
  43   25   52 1
  44   26   27 ar
  45   26   30 1
  46   27   53 1
  47   28   39 1
  48   29   34 1
  49   29   38 1
  50   29   54 1
  51   30   31 1
  52   30   32 2
  53   30   33 2
  54   31   55 1
  55   31   56 1
  56   31   57 1
  57   34   35 1
  58   34   58 1
  59   34   59 1
  60   35   36 1
  61   35   60 1
  62   36   37 1
  63   36   61 1
  64   36   62 1
  65   37   38 1
  66   37   63 1
  67   37   64 1
  68   38   65 1
  69   38   66 1
  70   39   40 2
  71   39   67 1
  72   40   41 1
  73   40   68 1

#	End of record

