#	Name: ASD03320045
#	Creating user name:	WinNT
#	Creation time:	15. 06. 2019 20:36

#	Modifying user name:	WinNT
#	Modification time:	15. 06. 2019 20:36

#	Program:	/corina/corina34_cracker 3.40 0067  02.08.2006

@<TRIPOS>MOLECULE
ASD03320045
  53   56    0    0    0
SMALL
NO_CHARGES


@<TRIPOS>ATOM
   1 C1            -0.0182     1.4732     0.0148 C.2     
   2 C2             0.0014    -0.0045     0.0118 C.ar    
   3 C3             1.2162    -0.6979     0.0013 C.ar    
   4 C4             1.1786    -2.0929    -0.0012 C.ar    
   5 C5            -0.0615    -2.7380     0.0068 C.ar    
   6 N6            -1.1840    -2.0458     0.0165 N.ar    
   7 C7            -1.1921    -0.7285     0.0251 C.ar    
   8 O8             1.0265     2.0950     0.0082 O.2     
   9 N9            -1.1942     2.1315     0.0193 N.am    
  10 N10            3.1264    -3.3082     1.0789 N.pl3   
  11 N11            4.2482    -4.0113     0.6216 N.2     
  12 C12            4.2359    -4.0074    -0.6873 C.2     
  13 C13            3.1108    -3.3049    -1.1194 C.2     
  14 C14            2.4332    -2.8777    -0.0126 C.2     
  15 C15            2.7605    -3.0817     2.4793 C.3     
  16 C16            2.1947    -4.3737     3.0746 C.3     
  17 C17            1.8708    -4.1459     4.5543 C.3     
  18 C18            3.1381    -3.6791     5.2770 C.3     
  19 C19            3.6675    -2.4139     4.5967 C.3     
  20 O20            3.9191    -2.6865     3.2166 O.3     
  21 C21            2.7136    -3.0605    -2.5524 C.3     
  22 C22           -1.2149     3.5271     0.1327 C.ar    
  23 C23           -2.1833     4.2641    -0.5363 C.ar    
  24 C24           -2.2031     5.6402    -0.4240 C.ar    
  25 C25           -1.2559     6.2865     0.3568 C.ar    
  26 C26           -0.2882     5.5509     1.0254 C.ar    
  27 C27           -0.2706     4.1743     0.9187 C.ar    
  28 O28           -1.2757     7.6416     0.4665 O.3     
  29 C29           -0.2708     8.2409     1.2869 C.3     
  30 F30           -0.3860     7.7562     2.5942 F       
  31 F31            0.9944     7.9231     0.7815 F       
  32 Cl32          -0.4851    10.0311     1.2886 Cl      
  33 Cl33          -0.1249    -4.4728     0.0032 Cl      
  34 H34            2.1573    -0.1682    -0.0050 H       
  35 H35           -2.1348    -0.2016     0.0377 H       
  36 H36           -2.0262     1.6386    -0.0560 H       
  37 H37            4.9736    -4.4704    -1.3259 H       
  38 H38            2.0078    -2.2954     2.5357 H       
  39 H39            1.2859    -4.6529     2.5415 H       
  40 H40            2.9321    -5.1710     2.9816 H       
  41 H41            1.0974    -3.3833     4.6450 H       
  42 H42            1.5200    -5.0775     4.9983 H       
  43 H43            2.9039    -3.4615     6.3191 H       
  44 H44            3.8946    -4.4624     5.2286 H       
  45 H45            2.9267    -1.6188     4.6810 H       
  46 H46            4.5930    -2.1014     5.0801 H       
  47 H47            2.0724    -3.8726    -2.8952 H       
  48 H48            2.1736    -2.1164    -2.6238 H       
  49 H49            3.6074    -3.0158    -3.1747 H       
  50 H50           -2.9205     3.7611    -1.1445 H       
  51 H51           -2.9559     6.2136    -0.9445 H       
  52 H52            0.4488     6.0548     1.6331 H       
  53 H53            0.4800     3.6015     1.4428 H       
@<TRIPOS>BOND
   1    1    2 1
   2    1    8 2
   3    1    9 am
   4    2    3 ar
   5    2    7 ar
   6    3    4 ar
   7    3   34 1
   8    4    5 ar
   9    4   14 1
  10    5    6 ar
  11    5   33 1
  12    6    7 ar
  13    7   35 1
  14    9   22 1
  15    9   36 1
  16   10   11 1
  17   10   14 1
  18   10   15 1
  19   11   12 2
  20   12   13 1
  21   12   37 1
  22   13   14 2
  23   13   21 1
  24   15   16 1
  25   15   20 1
  26   15   38 1
  27   16   17 1
  28   16   39 1
  29   16   40 1
  30   17   18 1
  31   17   41 1
  32   17   42 1
  33   18   19 1
  34   18   43 1
  35   18   44 1
  36   19   20 1
  37   19   45 1
  38   19   46 1
  39   21   47 1
  40   21   48 1
  41   21   49 1
  42   22   23 ar
  43   22   27 ar
  44   23   24 ar
  45   23   50 1
  46   24   25 ar
  47   24   51 1
  48   25   26 ar
  49   25   28 1
  50   26   27 ar
  51   26   52 1
  52   27   53 1
  53   28   29 1
  54   29   30 1
  55   29   31 1
  56   29   32 1

#	End of record

