#	Name: ASD00170099
#	Creating user name:	WinNT
#	Creation time:	15. 06. 2019 18:31

#	Modifying user name:	WinNT
#	Modification time:	15. 06. 2019 18:31

#	Program:	/corina/corina34_cracker 3.40 0067  02.08.2006

@<TRIPOS>MOLECULE
ASD00170099
  53   57    0    0    0
SMALL
NO_CHARGES


@<TRIPOS>ATOM
   1 C1             0.0024     1.3495    -0.0675 C.2     
   2 C2             0.0218     0.0144     0.2012 C.2     
   3 C3            -1.3118    -0.5536     0.2772 C.2     
   4 C4            -2.3019     0.3755     0.0623 C.2     
   5 S5            -1.6485     1.9223    -0.2220 S.3     
   6 N6            -3.6504     0.0926     0.0798 N.pl3   
   7 C7             1.2023     2.1971    -0.2034 C.ar    
   8 C8             2.2682     1.7813    -1.0053 C.ar    
   9 C9             3.3868     2.5788    -1.1276 C.ar    
  10 C10            3.4549     3.7882    -0.4585 C.ar    
  11 C11            2.4030     4.2065     0.3374 C.ar    
  12 C12            1.2757     3.4221     0.4646 C.ar    
  13 C13           -1.5744    -1.9652     0.5527 C.2     
  14 O14           -1.7435    -2.7442    -0.3681 O.2     
  15 C15            1.2627    -0.7689     0.3936 C.ar    
  16 C16            2.0743    -0.5338     1.5040 C.ar    
  17 C17            3.2298    -1.2669     1.6781 C.ar    
  18 C18            3.5848    -2.2346     0.7534 C.ar    
  19 C19            2.7833    -2.4723    -0.3505 C.ar    
  20 C20            1.6226    -1.7493    -0.5319 C.ar    
  21 C21           -1.6347    -2.4470     1.9488 C.ar    
  22 Cl22           5.0407    -3.1530     0.9787 Cl      
  23 C23           -1.7739    -3.8119     2.2119 C.ar    
  24 C24           -1.8294    -4.2596     3.5125 C.ar    
  25 C25           -1.7472    -3.3507     4.5677 C.ar    
  26 C26           -1.6087    -1.9873     4.3061 C.ar    
  27 C27           -1.5467    -1.5382     3.0063 C.ar    
  28 C28           -1.8076    -3.8339     5.9682 C.ar    
  29 C29           -1.7258    -2.9284     7.0249 C.ar    
  30 C30           -1.7831    -3.3839     8.3263 C.ar    
  31 C31           -1.9214    -4.7361     8.5832 C.ar    
  32 C32           -2.0031    -5.6393     7.5386 C.ar    
  33 C33           -1.9523    -5.1949     6.2331 C.ar    
  34 H34           -3.9566    -0.7947     0.3242 H       
  35 H35           -4.2934     0.7808    -0.1523 H       
  36 H36            2.2165     0.8375    -1.5278 H       
  37 H37            4.2116     2.2585    -1.7468 H       
  38 H38            4.3334     4.4085    -0.5577 H       
  39 H39            2.4630     5.1516     0.8567 H       
  40 H40            0.4554     3.7499     1.0858 H       
  41 H41            1.7986     0.2209     2.2257 H       
  42 H42            3.8589    -1.0856     2.5370 H       
  43 H43            3.0652    -3.2283    -1.0684 H       
  44 H44            0.9982    -1.9355    -1.3932 H       
  45 H45           -1.8382    -4.5157     1.3952 H       
  46 H46           -1.9370    -5.3148     3.7161 H       
  47 H47           -1.5458    -1.2844     5.1236 H       
  48 H48           -1.4395    -0.4828     2.8039 H       
  49 H49           -1.6174    -1.8725     6.8256 H       
  50 H50           -1.7194    -2.6834     9.1458 H       
  51 H51           -1.9654    -5.0881     9.6033 H       
  52 H52           -2.1110    -6.6939     7.7451 H       
  53 H53           -2.0165    -5.9009     5.4183 H       
@<TRIPOS>BOND
   1    1    2 2
   2    1    7 1
   3    1    5 1
   4    2    3 1
   5    2   15 1
   6    3    4 2
   7    3   13 1
   8    4    5 1
   9    4    6 1
  10    6   34 1
  11    6   35 1
  12    7    8 ar
  13    7   12 ar
  14    8    9 ar
  15    8   36 1
  16    9   10 ar
  17    9   37 1
  18   10   11 ar
  19   10   38 1
  20   11   12 ar
  21   11   39 1
  22   12   40 1
  23   13   14 2
  24   13   21 1
  25   15   16 ar
  26   15   20 ar
  27   16   17 ar
  28   16   41 1
  29   17   18 ar
  30   17   42 1
  31   18   19 ar
  32   18   22 1
  33   19   20 ar
  34   19   43 1
  35   20   44 1
  36   21   23 ar
  37   21   27 ar
  38   23   24 ar
  39   23   45 1
  40   24   25 ar
  41   24   46 1
  42   25   26 ar
  43   25   28 1
  44   26   27 ar
  45   26   47 1
  46   27   48 1
  47   28   29 ar
  48   28   33 ar
  49   29   30 ar
  50   29   49 1
  51   30   31 ar
  52   30   50 1
  53   31   32 ar
  54   31   51 1
  55   32   33 ar
  56   32   52 1
  57   33   53 1

#	End of record

