#	Name: ASD01917614
#	Creating user name:	WinNT
#	Creation time:	15. 06. 2019 20:09

#	Modifying user name:	WinNT
#	Modification time:	15. 06. 2019 20:09

#	Program:	/corina/corina34_cracker 3.40 0067  02.08.2006

@<TRIPOS>MOLECULE
ASD01917614
  40   43    0    0    0
SMALL
NO_CHARGES


@<TRIPOS>ATOM
   1 C1             0.0785     1.5229    -0.2870 C.ar    
   2 C2             0.1127     0.1800    -0.6862 C.ar    
   3 C3             1.3115    -0.4270    -0.9084 C.ar    
   4 C4             2.5076     0.2723    -0.7429 C.ar    
   5 C5             2.5085     1.5794    -0.3550 C.ar    
   6 C6             1.2893     2.2371    -0.1181 C.ar    
   7 N7             1.2617     3.5190     0.2623 N.ar    
   8 C8             0.1331     4.1483     0.4883 C.ar    
   9 C9            -1.0984     3.5207     0.3463 C.ar    
  10 C10           -1.1497     2.1910    -0.0517 C.ar    
  11 C11           -2.4444     1.4926    -0.2200 C.ar    
  12 C12           -2.8524     0.5401     0.7141 C.ar    
  13 C13           -4.0595    -0.1073     0.5531 C.ar    
  14 C14           -4.8665     0.1867    -0.5346 C.ar    
  15 C15           -4.4655     1.1319    -1.4655 C.ar    
  16 C16           -3.2630     1.7892    -1.3101 C.ar    
  17 S17           -2.5870     4.4089     0.6623 S.o2    
  18 O18           -2.1978     5.7198     1.0488 O.2     
  19 O19           -3.4514     4.1465    -0.4346 O.2     
  20 C20           -3.3412     3.6766     2.0763 C.ar    
  21 C21           -2.9229     4.0332     3.3447 C.ar    
  22 C22           -3.5151     3.4581     4.4556 C.ar    
  23 C23           -4.5272     2.5251     4.2948 C.ar    
  24 C24           -4.9437     2.1703     3.0248 C.ar    
  25 C25           -4.3545     2.7502     1.9166 C.ar    
  26 F26           -6.0479    -0.4505    -0.6881 F       
  27 F27            3.6823    -0.3553    -0.9698 F       
  28 F28           -3.1066     3.8056     5.6956 F       
  29 Cl29          -5.2712     1.8019     5.6866 Cl      
  30 H30           -0.8070    -0.3710    -0.8166 H       
  31 H31            1.3367    -1.4619    -1.2160 H       
  32 H32            3.4424     2.1072    -0.2304 H       
  33 H33            0.1620     5.1838     0.7937 H       
  34 H34           -2.2239     0.3098     1.5616 H       
  35 H35           -4.3762    -0.8449     1.2757 H       
  36 H36           -5.0977     1.3573    -2.3116 H       
  37 H37           -2.9534     2.5288    -2.0336 H       
  38 H38           -2.1338     4.7601     3.4688 H       
  39 H39           -5.7321     1.4430     2.8987 H       
  40 H40           -4.6833     2.4759     0.9251 H       
@<TRIPOS>BOND
   1    1    2 ar
   2    1    6 ar
   3    1   10 ar
   4    2    3 ar
   5    2   30 1
   6    3    4 ar
   7    3   31 1
   8    4    5 ar
   9    4   27 1
  10    5    6 ar
  11    5   32 1
  12    6    7 ar
  13    7    8 ar
  14    8    9 ar
  15    8   33 1
  16    9   10 ar
  17    9   17 1
  18   10   11 1
  19   11   12 ar
  20   11   16 ar
  21   12   13 ar
  22   12   34 1
  23   13   14 ar
  24   13   35 1
  25   14   15 ar
  26   14   26 1
  27   15   16 ar
  28   15   36 1
  29   16   37 1
  30   17   18 2
  31   17   20 1
  32   17   19 2
  33   20   21 ar
  34   20   25 ar
  35   21   22 ar
  36   21   38 1
  37   22   23 ar
  38   22   28 1
  39   23   24 ar
  40   23   29 1
  41   24   25 ar
  42   24   39 1
  43   25   40 1

#	End of record

