#	Name: ASD01903081
#	Creating user name:	WinNT
#	Creation time:	15. 06. 2019 19:54

#	Modifying user name:	WinNT
#	Modification time:	15. 06. 2019 19:54

#	Program:	/corina/corina34_cracker 3.40 0067  02.08.2006

@<TRIPOS>MOLECULE
ASD01903081
  33   35    0    0    0
SMALL
NO_CHARGES


@<TRIPOS>ATOM
   1 C1            -0.0155     1.2912     0.0091 C.2     
   2 N2             0.0021    -0.0041     0.0020 N.2     
   3 C3            -1.1742    -0.6199     0.0099 C.2     
   4 C4            -2.2308     0.2105     0.0245 C.2     
   5 S5            -1.6253     1.8646     0.0350 S.3     
   6 C6            -1.3105    -2.0992     0.0033 C.2     
   7 N7             1.1113     2.0975     0.0027 N.pl3   
   8 C8            -2.3079    -2.8455     0.6597 C.2     
   9 N9            -2.0934    -4.1120     0.4181 N.2     
  10 N10           -0.9595    -4.2235    -0.3957 N.pl3   
  11 C11           -0.4959    -2.9803    -0.6445 C.2     
  12 C12            0.9687     3.5556     0.0119 C.3     
  13 C13           -3.6804    -0.2015     0.0361 C.3     
  14 C14            2.2272     4.2044     0.6144 C.3     
  15 C15            2.8283     5.1045    -0.4849 C.3     
  16 C16            1.6299     5.4214    -1.4137 C.3     
  17 C17            0.8490     4.0839    -1.4325 C.3     
  18 H18            1.9945     1.6966    -0.0079 H       
  19 H19           -3.1107    -2.4416     1.2587 H       
  20 H20           -0.5758    -5.0507    -0.7267 H       
  21 H21            0.3678    -2.7295    -1.2425 H       
  22 H22            0.0890     3.8408     0.5888 H       
  23 H23           -4.0201    -0.3064     1.0665 H       
  24 H24           -4.2780     0.5579    -0.4680 H       
  25 H25           -3.7915    -1.1542    -0.4819 H       
  26 H26            1.9581     4.8053     1.4831 H       
  27 H27            2.9440     3.4345     0.8999 H       
  28 H28            3.2277     6.0212    -0.0513 H       
  29 H29            3.6047     4.5706    -1.0328 H       
  30 H30            1.0177     6.2203    -0.9953 H       
  31 H31            1.9749     5.6813    -2.4144 H       
  32 H32            1.3058     3.3852    -2.1334 H       
  33 H33           -0.1960     4.2559    -1.6903 H       
@<TRIPOS>BOND
   1    1    2 2
   2    1    7 1
   3    1    5 1
   4    2    3 1
   5    3    4 2
   6    3    6 1
   7    4    5 1
   8    4   13 1
   9    6    8 1
  10    6   11 2
  11    7   12 1
  12    7   18 1
  13    8    9 2
  14    8   19 1
  15    9   10 1
  16   10   11 1
  17   10   20 1
  18   11   21 1
  19   12   14 1
  20   12   17 1
  21   12   22 1
  22   13   23 1
  23   13   24 1
  24   13   25 1
  25   14   15 1
  26   14   26 1
  27   14   27 1
  28   15   16 1
  29   15   28 1
  30   15   29 1
  31   16   17 1
  32   16   30 1
  33   16   31 1
  34   17   32 1
  35   17   33 1

#	End of record

