#	Name: ASD05430744
#	Creating user name:	WinNT
#	Creation time:	15. 06. 2019 21:00

#	Modifying user name:	WinNT
#	Modification time:	15. 06. 2019 21:00

#	Program:	/corina/corina34_cracker 3.40 0067  02.08.2006

@<TRIPOS>MOLECULE
ASD05430744
  55   59    0    0    0
SMALL
NO_CHARGES


@<TRIPOS>ATOM
   1 C1            -0.0513     1.2214     0.0699 C.2     
   2 C2            -0.0944    -0.1630    -0.1370 C.2     
   3 C3            -1.3433    -0.7972    -0.2791 C.2     
   4 C4            -2.4750    -0.0666    -0.2144 C.2     
   5 N5            -2.4386     1.2817    -0.0137 N.am    
   6 C6            -1.2713     1.9385     0.1339 C.2     
   7 O7            -1.2648     3.1449     0.3125 O.2     
   8 C8            -3.6957     2.0314     0.0480 C.3     
   9 C9            -4.4811     1.8176    -1.2475 C.3     
  10 C10           -4.5133     1.5458     1.2171 C.ar    
  11 C11           -3.8826     1.1144     2.3687 C.ar    
  12 C12           -6.0138     0.6542     3.3651 C.ar    
  13 C13           -6.6457     1.0930     2.2116 C.ar    
  14 C14           -5.8936     1.5378     1.1385 C.ar    
  15 N15            1.2440     1.5732     0.1724 N.2     
  16 C16            1.9988     0.5085     0.0439 C.2     
  17 N17            1.2058    -0.5934    -0.1502 N.pl3   
  18 C18            3.4759     0.4979     0.0993 C.ar    
  19 C19            4.1764     1.6878     0.3029 C.ar    
  20 C20            5.5582     1.6732     0.3540 C.ar    
  21 C21            6.2481     0.4715     0.2022 C.ar    
  22 C22            5.5503    -0.7117    -0.0003 C.ar    
  23 C23            4.1725    -0.7034    -0.0463 C.ar    
  24 N24            7.6490     0.4576     0.2536 N.pl3   
  25 C25            8.4905     1.2670    -0.4404 C.2     
  26 N26            9.7190     0.9549    -0.1283 N.2     
  27 C27            9.7101    -0.0485     0.7616 C.2     
  28 C28            8.4282    -0.3715     1.0184 C.2     
  29 C29           10.9247    -0.6983     1.3729 C.3     
  30 C30           -4.6313     0.6682     3.4433 C.ar    
  31 Cl31          -3.8378     0.1255     4.8888 Cl      
  32 F32           -7.9946     1.0860     2.1352 F       
  33 F33           -6.7461     0.2199     4.4141 F       
  34 O34            6.2436     2.8306     0.5518 O.3     
  35 C35            5.4721     4.0244     0.6988 C.3     
  36 H36           -1.3947    -1.8640    -0.4396 H       
  37 H37           -3.4298    -0.5594    -0.3243 H       
  38 H38           -3.4801     3.0927     0.1713 H       
  39 H39           -4.6967     0.7563    -1.3707 H       
  40 H40           -5.4164     2.3754    -1.2015 H       
  41 H41           -3.8897     2.1688    -2.0930 H       
  42 H42           -2.8044     1.1253     2.4298 H       
  43 H43           -6.3850     1.8791     0.2394 H       
  44 H44            1.5089    -1.5065    -0.2738 H       
  45 H45            3.6404     2.6181     0.4200 H       
  46 H46            6.0878    -1.6411    -0.1176 H       
  47 H47            3.6321    -1.6252    -0.2036 H       
  48 H48            8.1930     2.0392    -1.1344 H       
  49 H49            8.0807    -1.1400     1.6929 H       
  50 H50           11.1952    -0.1734     2.2891 H       
  51 H51           10.7021    -1.7402     1.6033 H       
  52 H52           11.7551    -0.6514     0.6685 H       
  53 H53            4.8778     4.1860    -0.2005 H       
  54 H54            4.8100     3.9255     1.5590 H       
  55 H55            6.1401     4.8724     0.8501 H       
@<TRIPOS>BOND
   1    1    2 2
   2    1   15 1
   3    1    6 1
   4    2    3 1
   5    2   17 1
   6    3    4 2
   7    3   36 1
   8    4    5 1
   9    4   37 1
  10    5    6 am
  11    5    8 1
  12    6    7 2
  13    8    9 1
  14    8   10 1
  15    8   38 1
  16    9   39 1
  17    9   40 1
  18    9   41 1
  19   10   11 ar
  20   10   14 ar
  21   11   30 ar
  22   11   42 1
  23   12   13 ar
  24   12   33 1
  25   12   30 ar
  26   13   14 ar
  27   13   32 1
  28   14   43 1
  29   15   16 2
  30   16   17 1
  31   16   18 1
  32   17   44 1
  33   18   19 ar
  34   18   23 ar
  35   19   20 ar
  36   19   45 1
  37   20   21 ar
  38   20   34 1
  39   21   22 ar
  40   21   24 1
  41   22   23 ar
  42   22   46 1
  43   23   47 1
  44   24   25 1
  45   24   28 1
  46   25   26 2
  47   25   48 1
  48   26   27 1
  49   27   28 2
  50   27   29 1
  51   28   49 1
  52   29   50 1
  53   29   51 1
  54   29   52 1
  55   30   31 1
  56   34   35 1
  57   35   53 1
  58   35   54 1
  59   35   55 1

#	End of record

