#	Name: ASD02401004
#	Creating user name:	WinNT
#	Creation time:	15. 06. 2019 20:20

#	Modifying user name:	WinNT
#	Modification time:	15. 06. 2019 20:20

#	Program:	/corina/corina34_cracker 3.40 0067  02.08.2006

@<TRIPOS>MOLECULE
ASD02401004
  41   42    0    0    0
SMALL
NO_CHARGES


@<TRIPOS>ATOM
   1 C1            -0.0168     1.3849     0.0097 C.ar    
   2 C2             0.0021    -0.0041     0.0020 C.ar    
   3 C3            -1.1932    -0.7118     0.0096 C.ar    
   4 C4            -2.3958    -0.0329     0.0247 C.ar    
   5 C5            -2.4109     1.3498     0.0318 C.ar    
   6 C6            -1.2228     2.0574     0.0305 C.ar    
   7 C7            -3.7251     2.0872     0.0477 C.3     
   8 C8            -4.1499     2.3258     1.4738 C.ar    
   9 C9            -3.7579     3.4802     2.1264 C.ar    
  10 C10           -4.1455     3.7021     3.4332 C.ar    
  11 C11           -4.9300     2.7639     4.0922 C.ar    
  12 C12           -5.3219     1.6053     3.4336 C.ar    
  13 C13           -4.9355     1.3925     2.1249 C.ar    
  14 C14            1.2774     2.1569     0.0014 C.3     
  15 C15           -6.1730     0.5848     4.1444 C.3     
  16 N16           -5.3233     2.9849     5.4140 N.pl3   
  17 N17            1.2201    -0.6875    -0.0137 N.pl3   
  18 C18           -1.1777    -2.2187     0.0008 C.3     
  19 C19           -3.7175     4.9602     4.1438 C.3     
  20 H20           -3.3254    -0.5826     0.0306 H       
  21 H21           -1.2381     3.1373     0.0365 H       
  22 H22           -3.6112     3.0437    -0.4624 H       
  23 H23           -4.4822     1.4914    -0.4621 H       
  24 H24           -3.1478     4.2090     1.6136 H       
  25 H25           -5.2402     0.4921     1.6122 H       
  26 H26            1.5796     2.3486    -1.0281 H       
  27 H27            1.1385     3.1046     0.5217 H       
  28 H28            2.0502     1.5760     0.5048 H       
  29 H29           -7.2263     0.8145     3.9835 H       
  30 H30           -5.9536    -0.4081     3.7519 H       
  31 H31           -5.9546     0.6098     5.2121 H       
  32 H32           -5.0487     3.7941     5.8729 H       
  33 H33           -5.8711     2.3291     5.8731 H       
  34 H34            2.0541    -0.1922    -0.0193 H       
  35 H35            1.2320    -1.6574    -0.0190 H       
  36 H36           -1.1639    -2.5879     1.0263 H       
  37 H37           -2.0688    -2.5883    -0.5065 H       
  38 H38           -0.2890    -2.5699    -0.5236 H       
  39 H39           -4.4622     5.7397     3.9828 H       
  40 H40           -3.6250     4.7610     5.2114 H       
  41 H41           -2.7556     5.2900     3.7511 H       
@<TRIPOS>BOND
   1    1    2 ar
   2    1   14 1
   3    1    6 ar
   4    2    3 ar
   5    2   17 1
   6    3    4 ar
   7    3   18 1
   8    4    5 ar
   9    4   20 1
  10    5    6 ar
  11    5    7 1
  12    6   21 1
  13    7    8 1
  14    7   22 1
  15    7   23 1
  16    8    9 ar
  17    8   13 ar
  18    9   10 ar
  19    9   24 1
  20   10   11 ar
  21   10   19 1
  22   11   12 ar
  23   11   16 1
  24   12   13 ar
  25   12   15 1
  26   13   25 1
  27   14   26 1
  28   14   27 1
  29   14   28 1
  30   15   29 1
  31   15   30 1
  32   15   31 1
  33   16   32 1
  34   16   33 1
  35   17   34 1
  36   17   35 1
  37   18   36 1
  38   18   37 1
  39   18   38 1
  40   19   39 1
  41   19   40 1
  42   19   41 1

#	End of record

