#	Name: ASD01811237
#	Creating user name:	WinNT
#	Creation time:	15. 06. 2019 19:26

#	Modifying user name:	WinNT
#	Modification time:	15. 06. 2019 19:26

#	Program:	/corina/corina34_cracker 3.40 0067  02.08.2006

@<TRIPOS>MOLECULE
ASD01811237
  44   46    0    0    0
SMALL
NO_CHARGES


@<TRIPOS>ATOM
   1 C1             0.4237     1.4462     0.0319 C.2     
   2 C2             0.2161    -0.0165     0.0126 C.ar    
   3 C3             1.3125    -0.8784    -0.0755 C.ar    
   4 C4             1.1198    -2.2451    -0.0937 C.ar    
   5 C5            -0.1560    -2.7699    -0.0256 C.ar    
   6 C6            -1.2603    -1.9202     0.0623 C.ar    
   7 C7            -1.0733    -0.5401     0.0879 C.ar    
   8 O8             1.5498     1.8993     0.0768 O.2     
   9 O9            -0.6357     2.2774    -0.0058 O.3     
  10 C10            2.7080    -0.3146    -0.1513 C.3     
  11 C11           -2.6259    -2.4846     0.1342 C.2     
  12 N12           -2.9277    -3.7615     0.2112 N.2     
  13 C13           -4.2578    -3.8983     0.2599 C.2     
  14 C14           -4.8136    -2.6705     0.2123 C.2     
  15 N15           -3.7868    -1.7683     0.1380 N.pl3   
  16 C16           -6.2862    -2.3518     0.2414 C.3     
  17 C17           -6.7661    -2.2902     1.6928 C.3     
  18 C18           -0.3565    -4.2634    -0.0466 C.3     
  19 C19            0.0230    -4.9171    -1.3859 C.3     
  20 C20            0.6298    -6.0659    -0.5633 C.3     
  21 C21            0.8082    -5.0501     0.5774 C.3     
  22 C22           -0.3568     3.7021     0.0163 C.3     
  23 H23            1.9704    -2.9070    -0.1619 H       
  24 H24           -1.9239     0.1213     0.1609 H       
  25 H25            3.0630    -0.0872     0.8538 H       
  26 H26            3.3707    -1.0460    -0.6139 H       
  27 H27            2.6996     0.5970    -0.7487 H       
  28 H28           -4.7948    -4.8330     0.3258 H       
  29 H29           -3.8692    -0.8028     0.0941 H       
  30 H30           -6.4592    -1.3891    -0.2397 H       
  31 H31           -6.8365    -3.1279    -0.2906 H       
  32 H32           -6.5932    -3.2528     2.1739 H       
  33 H33           -6.2159    -1.5141     2.2248 H       
  34 H34           -7.8313    -2.0596     1.7139 H       
  35 H35           -1.3364    -4.5642     0.3239 H       
  36 H36           -0.8371    -5.2160    -1.9850 H       
  37 H37            0.7602    -4.3506    -1.9549 H       
  38 H38           -0.0799    -6.8606    -0.3333 H       
  39 H39            1.5711    -6.4409    -0.9651 H       
  40 H40            1.7601    -4.5200     0.5452 H       
  41 H41            0.5820    -5.4564     1.5633 H       
  42 H42           -1.2947     4.2565    -0.0184 H       
  43 H43            0.1800     3.9532     0.9311 H       
  44 H44            0.2535     3.9663    -0.8473 H       
@<TRIPOS>BOND
   1    1    2 1
   2    1    8 2
   3    1    9 1
   4    2    3 ar
   5    2    7 ar
   6    3    4 ar
   7    3   10 1
   8    4    5 ar
   9    4   23 1
  10    5    6 ar
  11    5   18 1
  12    6    7 ar
  13    6   11 1
  14    7   24 1
  15    9   22 1
  16   10   25 1
  17   10   26 1
  18   10   27 1
  19   11   12 2
  20   11   15 1
  21   12   13 1
  22   13   14 2
  23   13   28 1
  24   14   15 1
  25   14   16 1
  26   15   29 1
  27   16   17 1
  28   16   30 1
  29   16   31 1
  30   17   32 1
  31   17   33 1
  32   17   34 1
  33   18   19 1
  34   18   21 1
  35   18   35 1
  36   19   20 1
  37   19   36 1
  38   19   37 1
  39   20   21 1
  40   20   38 1
  41   20   39 1
  42   21   40 1
  43   21   41 1
  44   22   42 1
  45   22   43 1
  46   22   44 1

#	End of record

