#	Name: ASD00842236
#	Creating user name:	WinNT
#	Creation time:	15. 06. 2019 18:43

#	Modifying user name:	WinNT
#	Modification time:	15. 06. 2019 18:43

#	Program:	/corina/corina34_cracker 3.40 0067  02.08.2006

@<TRIPOS>MOLECULE
ASD00842236
  95  100    0    0    0
SMALL
NO_CHARGES


@<TRIPOS>ATOM
   1 F1             6.1305    -1.8116    -1.9255 F       
   2 C2             1.0710     1.5499    -0.5488 C.ar    
   3 C3             1.3579     0.2055    -0.7343 C.ar    
   4 C4             1.2625    -0.6756     0.3334 C.ar    
   5 C5             0.8822    -0.2122     1.5777 C.ar    
   6 C6             0.5963     1.1284     1.7599 C.ar    
   7 C7             0.6911     2.0084     0.6979 C.ar    
   8 C8             1.5730    -2.1369     0.1353 C.3     
   9 C9             1.2731    -2.9185     1.3966 C.2     
  10 C10            0.7766    -2.6975    -1.0447 C.3     
  11 C11           -0.6906    -2.4242    -0.8358 C.2     
  12 N12           -1.5974    -2.9118    -1.7054 N.am    
  13 O13           -1.0553    -1.7654     0.1150 O.2     
  14 C14           -3.0218    -2.5661    -1.5838 C.3     
  15 C15           -3.5192    -2.0660    -2.9443 C.3     
  16 N16           -3.2086    -3.0669    -3.9737 N.3     
  17 C17           -1.7585    -3.2550    -4.1136 C.3     
  18 C18           -1.1881    -3.7989    -2.8048 C.3     
  19 C19           -3.8192    -2.7059    -5.2601 C.3     
  20 C20           -3.3733    -3.7008    -6.3352 C.3     
  21 C21           -4.0601    -3.3560    -7.6587 C.3     
  22 N22           -5.5171    -3.4153    -7.4856 N.3     
  23 C23           -5.9741    -2.4354    -6.4919 C.3     
  24 C24           -5.3444    -2.7527    -5.1336 C.3     
  25 C25           -6.2078    -3.2258    -8.7681 C.3     
  26 O26            0.1920    -3.0298     1.9351 O.2     
  27 N27            2.4293    -3.4661     1.8072 N.am    
  28 C28            3.0555    -2.3389    -0.0790 C.ar    
  29 C29            3.4948    -3.1455     0.9634 C.ar    
  30 C30            3.9306    -1.8922    -1.0435 C.ar    
  31 C31            5.2684    -2.2473    -0.9809 C.ar    
  32 C32            5.7191    -3.0520     0.0546 C.ar    
  33 C33            4.8406    -3.5000     1.0223 C.ar    
  34 F34            7.0232    -3.3994     0.1175 F       
  35 C35            2.3001    -6.0796     2.6600 C.ar    
  36 C36            1.0559    -6.4643     2.1811 C.ar    
  37 C37            3.3260    -7.0020     2.7409 C.ar    
  38 C38            3.1160    -8.3088     2.3449 C.ar    
  39 C39            1.8733    -8.6985     1.8652 C.ar    
  40 C40            0.8425    -7.7753     1.7835 C.ar    
  41 O41            1.6671    -9.9842     1.4762 O.3     
  42 O42            0.0473    -5.5569     2.1023 O.3     
  43 C43            2.7738   -10.8813     1.5883 C.3     
  44 C44           -1.2066    -6.0229     1.5997 C.3     
  45 C45           -2.2108    -4.8686     1.5849 C.3     
  46 O46            1.7314    -0.2480    -1.9597 O.3     
  47 C47            2.2480     0.0325    -4.3039 C.3     
  48 C48            1.6994     0.6910    -3.0365 C.3     
  49 S49            2.5742    -4.4120     3.1587 S.o2    
  50 O50            3.9349    -4.3319     3.5605 O.2     
  51 O51            1.4907    -4.0644     4.0098 O.2     
  52 H52            1.1489     2.2384    -1.3772 H       
  53 H53            0.8078    -0.8976     2.4091 H       
  54 H54            0.2984     1.4887     2.7336 H       
  55 H55            0.4672     3.0549     0.8428 H       
  56 H56            1.1077    -2.2191    -1.9665 H       
  57 H57            0.9395    -3.7730    -1.1148 H       
  58 H58           -3.5890    -3.4488    -1.2885 H       
  59 H59           -3.1457    -1.7813    -0.8376 H       
  60 H60           -4.5971    -1.9097    -2.9024 H       
  61 H61           -3.0243    -1.1263    -3.1895 H       
  62 H62           -1.5594    -3.9611    -4.9199 H       
  63 H63           -1.2880    -2.2988    -4.3426 H       
  64 H64           -0.1002    -3.8318    -2.8651 H       
  65 H65           -1.5780    -4.8006    -2.6237 H       
  66 H66           -3.5068    -1.7005    -5.5422 H       
  67 H67           -2.2921    -3.6415    -6.4600 H       
  68 H68           -3.6505    -4.7109    -6.0337 H       
  69 H69           -3.7715    -2.3510    -7.9666 H       
  70 H70           -3.7558    -4.0712    -8.4229 H       
  71 H71           -5.6765    -1.4347    -6.8052 H       
  72 H72           -7.0599    -2.4819    -6.4086 H       
  73 H73           -5.6527    -3.7479    -4.8132 H       
  74 H74           -5.6715    -2.0160    -4.3999 H       
  75 H75           -5.9062    -4.0099    -9.4626 H       
  76 H76           -7.2854    -3.2743    -8.6111 H       
  77 H77           -5.9444    -2.2526    -9.1823 H       
  78 H78            3.5746    -1.2660    -1.8482 H       
  79 H79            5.1981    -4.1261     1.8263 H       
  80 H80            4.2937    -6.7006     3.1139 H       
  81 H81            3.9195    -9.0276     2.4084 H       
  82 H82           -0.1253    -8.0768     1.4108 H       
  83 H83            3.0919   -10.9376     2.6293 H       
  84 H84            2.4747   -11.8718     1.2456 H       
  85 H85            3.5990   -10.5186     0.9753 H       
  86 H86           -1.0737    -6.4019     0.5864 H       
  87 H87           -1.5806    -6.8216     2.2403 H       
  88 H88           -3.1672    -5.2240     1.2016 H       
  89 H89           -2.3436    -4.4895     2.5982 H       
  90 H90           -1.8368    -4.0699     0.9443 H       
  91 H91            3.2431    -0.3654    -4.1049 H       
  92 H92            1.5864    -0.7787    -4.6075 H       
  93 H93            2.3055     0.7726    -5.1021 H       
  94 H94            0.6718     1.0110    -3.2090 H       
  95 H95            2.3116     1.5562    -2.7823 H       
@<TRIPOS>BOND
   1    1   31 1
   2    2    3 ar
   3    2    7 ar
   4    2   52 1
   5    3    4 ar
   6    3   46 1
   7    4    5 ar
   8    4    8 1
   9    5    6 ar
  10    5   53 1
  11    6    7 ar
  12    6   54 1
  13    7   55 1
  14    8    9 1
  15    8   10 1
  16    8   28 1
  17    9   26 2
  18    9   27 am
  19   10   11 1
  20   10   56 1
  21   10   57 1
  22   11   12 am
  23   11   13 2
  24   12   14 1
  25   12   18 1
  26   14   15 1
  27   14   58 1
  28   14   59 1
  29   15   16 1
  30   15   60 1
  31   15   61 1
  32   16   17 1
  33   16   19 1
  34   17   18 1
  35   17   62 1
  36   17   63 1
  37   18   64 1
  38   18   65 1
  39   19   20 1
  40   19   24 1
  41   19   66 1
  42   20   21 1
  43   20   67 1
  44   20   68 1
  45   21   22 1
  46   21   69 1
  47   21   70 1
  48   22   23 1
  49   22   25 1
  50   23   24 1
  51   23   71 1
  52   23   72 1
  53   24   73 1
  54   24   74 1
  55   25   75 1
  56   25   76 1
  57   25   77 1
  58   27   49 am
  59   27   29 1
  60   28   29 ar
  61   28   30 ar
  62   29   33 ar
  63   30   31 ar
  64   30   78 1
  65   31   32 ar
  66   32   33 ar
  67   32   34 1
  68   33   79 1
  69   35   36 ar
  70   35   37 ar
  71   35   49 1
  72   36   42 1
  73   36   40 ar
  74   37   38 ar
  75   37   80 1
  76   38   39 ar
  77   38   81 1
  78   39   40 ar
  79   39   41 1
  80   40   82 1
  81   41   43 1
  82   42   44 1
  83   43   83 1
  84   43   84 1
  85   43   85 1
  86   44   45 1
  87   44   86 1
  88   44   87 1
  89   45   88 1
  90   45   89 1
  91   45   90 1
  92   46   48 1
  93   47   48 1
  94   47   91 1
  95   47   92 1
  96   47   93 1
  97   48   94 1
  98   48   95 1
  99   49   50 2
 100   49   51 2

#	End of record

