#	Name: ASD02039191
#	Creating user name:	WinNT
#	Creation time:	15. 06. 2019 20:17

#	Modifying user name:	WinNT
#	Modification time:	15. 06. 2019 20:17

#	Program:	/corina/corina34_cracker 3.40 0067  02.08.2006

@<TRIPOS>MOLECULE
ASD02039191
  39   42    0    0    0
SMALL
NO_CHARGES


@<TRIPOS>ATOM
   1 N1             0.0020     1.2625     0.3693 N.2     
   2 C2             0.0063    -0.0135     0.0889 C.2     
   3 N3             1.2922    -0.3754    -0.1076 N.2     
   4 C4             1.9960     0.7160     0.0677 C.2     
   5 O5             1.1351     1.6954     0.3611 O.3     
   6 C6             3.4937     0.8428    -0.0404 C.3     
   7 C7             3.8675     1.1881    -1.4589 C.ar    
   8 N8            -1.1049    -0.8433     0.0085 N.pl3   
   9 C9            -2.3915    -0.3043     0.1293 C.ar    
  10 C10           -2.6368     1.0037    -0.2682 C.ar    
  11 C11           -3.9068     1.5346    -0.1490 C.ar    
  12 C12           -4.9370     0.7605     0.3679 C.ar    
  13 C13           -4.6919    -0.5450     0.7651 C.ar    
  14 C14           -3.4238    -1.0788     0.6411 C.ar    
  15 C15            3.9578     2.5209    -1.8418 C.ar    
  16 C16            4.2943     2.8600    -3.1214 C.ar    
  17 C17            4.5516     1.8619    -4.0583 C.ar    
  18 C18            4.4611     0.5108    -3.6721 C.ar    
  19 C19            4.1195     0.1890    -2.3537 C.ar    
  20 O20           -6.1872     1.2834     0.4852 O.3     
  21 Cl21          -4.2143     3.1695    -0.6450 Cl      
  22 C22           -7.1990     0.4308     1.0251 C.3     
  23 F23           -7.3388    -0.6994     0.2125 F       
  24 F24           -6.8346     0.0345     2.3163 F       
  25 N25            4.9029     1.8711    -5.3828 N.pl3   
  26 N26            5.0332     0.5523    -5.8303 N.2     
  27 C27            4.7825    -0.2769    -4.8577 C.2     
  28 H28            3.8410     1.6300     0.6287 H       
  29 H29            3.9595    -0.1025     0.2382 H       
  30 H30           -0.9895    -1.7962    -0.1314 H       
  31 H31           -1.8352     1.6057    -0.6699 H       
  32 H32           -5.4936    -1.1462     1.1678 H       
  33 H33           -3.2334    -2.0958     0.9507 H       
  34 H34            3.7591     3.2982    -1.1187 H       
  35 H35            4.3603     3.8997    -3.4062 H       
  36 H36            4.0475    -0.8443    -2.0482 H       
  37 H37           -8.1456     0.9698     1.0639 H       
  38 H38            5.0390     2.6649    -5.9235 H       
  39 H39            4.8085    -1.3549    -4.9178 H       
@<TRIPOS>BOND
   1    1    2 2
   2    1    5 1
   3    2    3 1
   4    2    8 1
   5    3    4 2
   6    4    5 1
   7    4    6 1
   8    6    7 1
   9    6   28 1
  10    6   29 1
  11    7   15 ar
  12    7   19 ar
  13    8    9 1
  14    8   30 1
  15    9   10 ar
  16    9   14 ar
  17   10   11 ar
  18   10   31 1
  19   11   12 ar
  20   11   21 1
  21   12   13 ar
  22   12   20 1
  23   13   14 ar
  24   13   32 1
  25   14   33 1
  26   15   16 ar
  27   15   34 1
  28   16   17 ar
  29   16   35 1
  30   17   18 ar
  31   17   25 1
  32   18   19 ar
  33   18   27 1
  34   19   36 1
  35   20   22 1
  36   22   23 1
  37   22   24 1
  38   22   37 1
  39   25   26 1
  40   25   38 1
  41   26   27 2
  42   27   39 1

#	End of record

