#	Name: ASD09720011
#	Creating user name:	WinNT
#	Creation time:	15. 06. 2019 21:22

#	Modifying user name:	WinNT
#	Modification time:	15. 06. 2019 21:22

#	Program:	/corina/corina34_cracker 3.40 0067  02.08.2006

@<TRIPOS>MOLECULE
ASD09720011
  33   35    0    0    0
SMALL
NO_CHARGES


@<TRIPOS>ATOM
   1 C1            -0.2511     0.3312     0.8694 C.2     
   2 S2             0.1834     1.1168    -0.6387 S.3     
   3 C3            -1.4300     1.5667    -0.9541 C.2     
   4 C4            -2.2543     1.1398     0.0386 C.2     
   5 C5            -1.5601     0.4231     1.0830 C.2     
   6 Cl6            0.8709    -0.4619     1.9305 Cl      
   7 Cl7           -1.9502     2.4514    -2.3542 Cl      
   8 C8            -3.7074     1.3798     0.0464 C.2     
   9 N9            -4.5290     0.3828    -0.0486 N.2     
  10 C10           -4.2383     2.7851     0.1650 C.3     
  11 O11           -4.0331    -0.9244    -0.2734 O.3     
  12 S12           -6.0519     2.7500     0.1455 S.3     
  13 C13           -6.4829     4.4522     0.2911 C.ar    
  14 C14           -5.4983     5.4143     0.3845 C.ar    
  15 C15           -5.8286     6.7607     0.4998 C.ar    
  16 C16           -7.1284     7.1666     0.5237 C.ar    
  17 C17           -8.1618     6.2189     0.4311 C.ar    
  18 C18           -9.5121     6.6092     0.4538 C.ar    
  19 C19          -10.4879     5.6647     0.3623 C.ar    
  20 C20          -10.1691     4.3133     0.2464 C.ar    
  21 C21           -8.8721     3.8992     0.2217 C.ar    
  22 C22           -7.8391     4.8450     0.3074 C.ar    
  23 H23           -2.0525     0.0106     1.9512 H       
  24 H24           -3.8936     3.2260     1.1003 H       
  25 H25           -3.8774     3.3818    -0.6727 H       
  26 H26           -4.7210    -1.6017    -0.3297 H       
  27 H27           -4.4597     5.1188     0.3683 H       
  28 H28           -5.0411     7.4963     0.5719 H       
  29 H29           -7.3649     8.2165     0.6142 H       
  30 H30           -9.7739     7.6532     0.5436 H       
  31 H31          -11.5245     5.9672     0.3803 H       
  32 H32          -10.9622     3.5836     0.1754 H       
  33 H33           -8.6395     2.8483     0.1317 H       
@<TRIPOS>BOND
   1    1    2 1
   2    1    6 1
   3    1    5 2
   4    2    3 1
   5    3    4 2
   6    3    7 1
   7    4    5 1
   8    4    8 1
   9    5   23 1
  10    8    9 2
  11    8   10 1
  12    9   11 1
  13   10   12 1
  14   10   24 1
  15   10   25 1
  16   11   26 1
  17   12   13 1
  18   13   14 ar
  19   13   22 ar
  20   14   15 ar
  21   14   27 1
  22   15   16 ar
  23   15   28 1
  24   16   17 ar
  25   16   29 1
  26   17   18 ar
  27   17   22 ar
  28   18   19 ar
  29   18   30 1
  30   19   20 ar
  31   19   31 1
  32   20   21 ar
  33   20   32 1
  34   21   22 ar
  35   21   33 1

#	End of record

