#	Name: ASD01813687
#	Creating user name:	WinNT
#	Creation time:	15. 06. 2019 19:30

#	Modifying user name:	WinNT
#	Modification time:	15. 06. 2019 19:30

#	Program:	/corina/corina34_cracker 3.40 0067  02.08.2006

@<TRIPOS>MOLECULE
ASD01813687
  33   35    0    0    0
SMALL
NO_CHARGES


@<TRIPOS>ATOM
   1 C1             1.4207     1.3842    -2.9218 C.ar    
   2 C2             1.3957    -0.0022    -2.8790 C.ar    
   3 C3             2.1274    -0.6910    -1.9337 C.ar    
   4 C4             2.9023     0.0081    -1.0087 C.ar    
   5 C5             2.9246     1.4119    -1.0559 C.ar    
   6 C6             2.1794     2.0942    -2.0176 C.ar    
   7 N7             3.6376    -0.6676    -0.0580 N.pl3   
   8 C8             4.3953    -0.0430     0.8519 C.2     
   9 C9             4.4968     1.3328     0.9054 C.2     
  10 C10            3.7482     2.1393    -0.0720 C.2     
  11 O11            3.8044     3.3565    -0.0669 O.2     
  12 C12            5.3388     1.9811     1.9206 C.2     
  13 O13            5.4297     3.3254     1.9625 O.3     
  14 O14            5.9534     1.3050     2.7225 O.2     
  15 C15            3.5871    -2.1316    -0.0427 C.3     
  16 C16            4.4057    -2.6504     1.1113 C.ar    
  17 C17            3.8465    -2.7890     2.3743 C.ar    
  18 C18            4.6302    -3.2694     3.4096 C.ar    
  19 N19            5.8920    -3.5933     3.2066 N.ar    
  20 C20            6.4571    -3.4751     2.0212 C.ar    
  21 C21            5.7359    -3.0068     0.9360 C.ar    
  22 F22            2.0929    -2.0412    -1.9039 F       
  23 F23            2.5544    -2.4589     2.5904 F       
  24 F24            6.3220    -2.8884    -0.2755 F       
  25 H25            0.8461     1.9092    -3.6706 H       
  26 H26            0.7969    -0.5481    -3.5929 H       
  27 H27            2.1974     3.1735    -2.0532 H       
  28 H28            4.9454    -0.6352     1.5683 H       
  29 H29            5.9958     3.7060     2.6480 H       
  30 H30            2.5533    -2.4584     0.0694 H       
  31 H31            3.9912    -2.5189    -0.9780 H       
  32 H32            4.2029    -3.3799     4.3953 H       
  33 H33            7.4937    -3.7503     1.8943 H       
@<TRIPOS>BOND
   1    1    2 ar
   2    1    6 ar
   3    1   25 1
   4    2    3 ar
   5    2   26 1
   6    3    4 ar
   7    3   22 1
   8    4    5 ar
   9    4    7 1
  10    5    6 ar
  11    5   10 1
  12    6   27 1
  13    7    8 1
  14    7   15 1
  15    8    9 2
  16    8   28 1
  17    9   10 1
  18    9   12 1
  19   10   11 2
  20   12   13 1
  21   12   14 2
  22   13   29 1
  23   15   16 1
  24   15   30 1
  25   15   31 1
  26   16   17 ar
  27   16   21 ar
  28   17   18 ar
  29   17   23 1
  30   18   19 ar
  31   18   32 1
  32   19   20 ar
  33   20   21 ar
  34   20   33 1
  35   21   24 1

#	End of record

