#	Name: ASD01148427
#	Creating user name:	WinNT
#	Creation time:	15. 06. 2019 19:02

#	Modifying user name:	WinNT
#	Modification time:	15. 06. 2019 19:02

#	Program:	/corina/corina34_cracker 3.40 0067  02.08.2006

@<TRIPOS>MOLECULE
ASD01148427
  58   61    0    0    0
SMALL
NO_CHARGES


@<TRIPOS>ATOM
   1 C1             0.3632     1.8418     0.0683 C.ar    
   2 C2             0.4617     0.4629    -0.0068 C.ar    
   3 C3            -0.6839    -0.3079    -0.0935 C.ar    
   4 C4            -1.9257     0.2986    -0.1052 C.ar    
   5 C5            -2.0240     1.6757    -0.0302 C.ar    
   6 C6            -0.8809     2.4470     0.0617 C.ar    
   7 C7            -3.3787     2.3358    -0.0436 C.3     
   8 O8            -4.3705     1.4913     0.5751 O.3     
   9 C9            -3.3997     3.5760     0.8815 C.3     
  10 C10           -3.9258     3.0061     2.1850 C.2     
  11 N11           -4.4455     1.8500     1.9407 N.2     
  12 C12           -3.8552     3.6608     3.5061 C.ar    
  13 C13           -4.3816     3.0216     4.6318 C.ar    
  14 C14           -3.2570     4.9170     3.6322 C.ar    
  15 C15           -3.1913     5.5275     4.8644 C.ar    
  16 C16           -3.7226     4.8910     5.9885 C.ar    
  17 C17           -4.3157     3.6322     5.8635 C.ar    
  18 C18           -3.6515     5.5464     7.3113 C.2     
  19 O19           -4.2101     5.0463     8.2681 O.2     
  20 N20           -2.9674     6.6984     7.4567 N.am    
  21 C21           -4.8889     2.9457     7.0764 C.3     
  22 C22           -3.7892     2.7083    -1.4696 C.3     
  23 F23           -3.8283     1.5546    -2.2601 F       
  24 F24           -5.0553     3.3032    -1.4501 F       
  25 F25           -2.8596     3.6076    -2.0027 F       
  26 Cl26           2.0217    -0.2985     0.0074 Cl      
  27 Cl27           1.7996     2.8104     0.1777 Cl      
  28 N28           -2.9000     7.3196     8.7107 N.pl3   
  29 C29           -2.0332     6.7687     9.7554 C.3     
  30 C30           -3.6592     8.4641     8.9648 C.ar    
  31 C31           -3.5936     9.0813    10.2075 C.ar    
  32 C32           -4.3453    10.2130    10.4552 C.ar    
  33 C33           -5.1626    10.7320     9.4678 C.ar    
  34 C34           -5.2306    10.1198     8.2297 C.ar    
  35 C35           -4.4773     8.9911     7.9734 C.ar    
  36 C36           -0.5777    -1.8089    -0.1757 C.3     
  37 F37           -1.8596    -2.3635    -0.2550 F       
  38 F38            0.1548    -2.1630    -1.3138 F       
  39 F39            0.0703    -2.2938     0.9655 F       
  40 H40           -2.8197    -0.3034    -0.1732 H       
  41 H41           -0.9584     3.5226     0.1202 H       
  42 H42           -2.3950     3.9781     1.0124 H       
  43 H43           -4.0747     4.3380     0.4919 H       
  44 H44           -4.8404     2.0487     4.5352 H       
  45 H45           -2.8459     5.4090     2.7631 H       
  46 H46           -2.7286     6.4985     4.9620 H       
  47 H47           -2.5216     7.0975     6.6932 H       
  48 H48           -5.8965     3.3178     7.2623 H       
  49 H49           -4.9252     1.8704     6.9020 H       
  50 H50           -4.2598     3.1524     7.9422 H       
  51 H51           -1.0436     7.2198     9.6817 H       
  52 H52           -2.4601     6.9871    10.7342 H       
  53 H53           -1.9509     5.6894     9.6275 H       
  54 H54           -2.9558     8.6763    10.9792 H       
  55 H55           -4.2950    10.6932    11.4213 H       
  56 H56           -5.7494    11.6171     9.6642 H       
  57 H57           -5.8702    10.5275     7.4608 H       
  58 H58           -4.5309     8.5134     7.0063 H       
@<TRIPOS>BOND
   1    1    2 ar
   2    1   27 1
   3    1    6 ar
   4    2    3 ar
   5    2   26 1
   6    3    4 ar
   7    3   36 1
   8    4    5 ar
   9    4   40 1
  10    5    6 ar
  11    5    7 1
  12    6   41 1
  13    7    8 1
  14    7    9 1
  15    7   22 1
  16    8   11 1
  17    9   10 1
  18    9   42 1
  19    9   43 1
  20   10   11 2
  21   10   12 1
  22   12   13 ar
  23   12   14 ar
  24   13   17 ar
  25   13   44 1
  26   14   15 ar
  27   14   45 1
  28   15   16 ar
  29   15   46 1
  30   16   17 ar
  31   16   18 1
  32   17   21 1
  33   18   19 2
  34   18   20 am
  35   20   28 1
  36   20   47 1
  37   21   48 1
  38   21   49 1
  39   21   50 1
  40   22   23 1
  41   22   24 1
  42   22   25 1
  43   28   29 1
  44   28   30 1
  45   29   51 1
  46   29   52 1
  47   29   53 1
  48   30   31 ar
  49   30   35 ar
  50   31   32 ar
  51   31   54 1
  52   32   33 ar
  53   32   55 1
  54   33   34 ar
  55   33   56 1
  56   34   35 ar
  57   34   57 1
  58   35   58 1
  59   36   37 1
  60   36   38 1
  61   36   39 1

#	End of record

