#	Name: ASD01880972
#	Creating user name:	WinNT
#	Creation time:	15. 06. 2019 19:41

#	Modifying user name:	WinNT
#	Modification time:	15. 06. 2019 19:41

#	Program:	/corina/corina34_cracker 3.40 0067  02.08.2006

@<TRIPOS>MOLECULE
ASD01880972
  48   51    0    0    0
SMALL
NO_CHARGES


@<TRIPOS>ATOM
   1 N1             0.0007     1.3142    -0.2012 N.ar    
   2 C2             0.0232    -0.0042    -0.2230 C.ar    
   3 N3             1.1377    -0.6836    -0.0321 N.ar    
   4 C4             2.2866    -0.0615     0.1909 C.ar    
   5 C5             2.3107     1.3190     0.2225 C.ar    
   6 C6             1.1140     2.0082     0.0166 C.ar    
   7 C7             3.5969     2.0632     0.4735 C.3     
   8 O8             4.6354     1.1302     0.7781 O.3     
   9 C9             5.8671     1.6404     1.0320 C.ar    
  10 C10            6.9239     0.7869     1.3356 C.ar    
  11 C11            8.1695     1.3031     1.5918 C.ar    
  12 C12            8.3858     2.6847     1.5500 C.ar    
  13 C13            7.3206     3.5386     1.2444 C.ar    
  14 C14            6.0728     3.0133     0.9828 C.ar    
  15 C15            9.4955     0.6753     1.9427 C.3     
  16 N16           10.4465     1.7829     2.0904 N.am    
  17 C17            9.8017     2.9401     1.8629 C.2     
  18 O18           10.3149     4.0414     1.9086 O.2     
  19 Cl19          -1.4543    -0.8692    -0.5104 Cl      
  20 Cl20           7.5706     5.2556     1.1887 Cl      
  21 N21            1.0869     3.3932     0.0385 N.3     
  22 C22           -0.1586     3.8862     0.6443 C.3     
  23 C23           -0.1208     5.4156     0.7027 C.3     
  24 O24            0.0822     5.9331    -0.6150 O.3     
  25 C25            1.2865     5.4738    -1.2347 C.3     
  26 C26            1.2629     3.9450    -1.3127 C.3     
  27 C27           12.6857     1.5098     1.1455 C.3     
  28 C28           11.8655     1.6495     2.4295 C.3     
  29 H29            3.1932    -0.6275     0.3463 H       
  30 H30            3.8680     2.6308    -0.4168 H       
  31 H31            3.4639     2.7457     1.3129 H       
  32 H32            6.7637    -0.2806     1.3698 H       
  33 H33            5.2504     3.6723     0.7465 H       
  34 H34            9.4131     0.1246     2.8797 H       
  35 H35            9.8179     0.0087     1.1428 H       
  36 H36           -1.0083     3.5659     0.0415 H       
  37 H37           -0.2559     3.4858     1.6534 H       
  38 H38           -1.0655     5.7882     1.0986 H       
  39 H39            0.6967     5.7351     1.3491 H       
  40 H40            1.3595     5.8884    -2.2401 H       
  41 H41            2.1449     5.7949    -0.6447 H       
  42 H42            2.2033     3.5874    -1.7322 H       
  43 H43            0.4359     3.6256    -1.9469 H       
  44 H44           13.7415     1.4105     1.3978 H       
  45 H45           12.3579     0.6253     0.5993 H       
  46 H46           12.5422     2.3941     0.5246 H       
  47 H47           12.1933     2.5340     2.9756 H       
  48 H48           12.0090     0.7651     3.0503 H       
@<TRIPOS>BOND
   1    1    2 ar
   2    1    6 ar
   3    2    3 ar
   4    2   19 1
   5    3    4 ar
   6    4    5 ar
   7    4   29 1
   8    5    6 ar
   9    5    7 1
  10    6   21 1
  11    7    8 1
  12    7   30 1
  13    7   31 1
  14    8    9 1
  15    9   10 ar
  16    9   14 ar
  17   10   11 ar
  18   10   32 1
  19   11   12 ar
  20   11   15 1
  21   12   13 ar
  22   12   17 1
  23   13   14 ar
  24   13   20 1
  25   14   33 1
  26   15   16 1
  27   15   34 1
  28   15   35 1
  29   16   17 am
  30   16   28 1
  31   17   18 2
  32   21   22 1
  33   21   26 1
  34   22   23 1
  35   22   36 1
  36   22   37 1
  37   23   24 1
  38   23   38 1
  39   23   39 1
  40   24   25 1
  41   25   26 1
  42   25   40 1
  43   25   41 1
  44   26   42 1
  45   26   43 1
  46   27   28 1
  47   27   44 1
  48   27   45 1
  49   27   46 1
  50   28   47 1
  51   28   48 1

#	End of record

