#	Name: ASD01913505
#	Creating user name:	WinNT
#	Creation time:	15. 06. 2019 20:01

#	Modifying user name:	WinNT
#	Modification time:	15. 06. 2019 20:01

#	Program:	/corina/corina34_cracker 3.40 0067  02.08.2006

@<TRIPOS>MOLECULE
ASD01913505
  40   42    0    0    0
SMALL
NO_CHARGES


@<TRIPOS>ATOM
   1 C1            -1.3223     1.4774    -0.5710 C.ar    
   2 C2            -1.2203     0.0981    -0.7366 C.ar    
   3 C3            -0.6248    -0.4001    -1.8889 C.ar    
   4 N4            -0.1623     0.4172    -2.8134 N.ar    
   5 C5            -0.2436     1.7275    -2.6865 C.ar    
   6 C6            -0.8225     2.2985    -1.5685 C.ar    
   7 C7            -1.6173    -2.1537     0.0571 C.ar    
   8 C8            -0.3792    -2.7845     0.0649 C.ar    
   9 N9            -0.2846    -4.0883    -0.1038 N.ar    
  10 C10           -1.3479    -4.8456    -0.2851 C.ar    
  11 C11           -2.6220    -4.2910    -0.3054 C.ar    
  12 C12           -2.7652    -2.9182    -0.1315 C.ar    
  13 N13           -3.7451    -5.1020    -0.4989 N.am    
  14 C14           -4.8227    -4.6173    -1.1472 C.2     
  15 N15           -1.7093    -0.7716     0.2418 N.pl3   
  16 C16           -6.0466    -5.4382    -1.2631 C.ar    
  17 O17           -4.7881    -3.5051    -1.6366 O.2     
  18 C18           -6.0879    -6.7164    -0.7014 C.ar    
  19 C19           -7.2306    -7.4845    -0.8082 C.ar    
  20 C20           -8.3391    -6.9959    -1.4701 C.ar    
  21 C21           -8.3115    -5.7189    -2.0373 C.ar    
  22 C22           -7.1636    -4.9363    -1.9281 C.ar    
  23 C23           -9.4620    -5.2135    -2.7240 C.1     
  24 C24           -2.3183    -0.2345     1.4611 C.3     
  25 N25          -10.3747    -4.8126    -3.2687 N.1     
  26 H26           -1.7836     1.8962     0.3111 H       
  27 H27           -0.5399    -1.4677    -2.0282 H       
  28 H28            0.1479     2.3633    -3.4668 H       
  29 H29           -0.8846     3.3726    -1.4740 H       
  30 H30            0.5167    -2.1991     0.2106 H       
  31 H31           -1.2276    -5.9103    -0.4199 H       
  32 H32           -3.7419    -2.4576    -0.1420 H       
  33 H33           -3.7483    -6.0133    -0.1665 H       
  34 H34           -5.2241    -7.1050    -0.1825 H       
  35 H35           -7.2569    -8.4723    -0.3723 H       
  36 H36           -9.2295    -7.6018    -1.5500 H       
  37 H37           -7.1369    -3.9486    -2.3642 H       
  38 H38           -3.3887    -0.1011     1.3043 H       
  39 H39           -2.1556    -0.9294     2.2850 H       
  40 H40           -1.8637     0.7266     1.7013 H       
@<TRIPOS>BOND
   1    1    2 ar
   2    1    6 ar
   3    1   26 1
   4    2    3 ar
   5    2   15 1
   6    3    4 ar
   7    3   27 1
   8    4    5 ar
   9    5    6 ar
  10    5   28 1
  11    6   29 1
  12    7    8 ar
  13    7   12 ar
  14    7   15 1
  15    8    9 ar
  16    8   30 1
  17    9   10 ar
  18   10   11 ar
  19   10   31 1
  20   11   12 ar
  21   11   13 1
  22   12   32 1
  23   13   14 am
  24   13   33 1
  25   14   16 1
  26   14   17 2
  27   15   24 1
  28   16   18 ar
  29   16   22 ar
  30   18   19 ar
  31   18   34 1
  32   19   20 ar
  33   19   35 1
  34   20   21 ar
  35   20   36 1
  36   21   22 ar
  37   21   23 1
  38   22   37 1
  39   23   25 3
  40   24   38 1
  41   24   39 1
  42   24   40 1

#	End of record

