#	Name: ASD03091438
#	Creating user name:	WinNT
#	Creation time:	15. 06. 2019 20:30

#	Modifying user name:	WinNT
#	Modification time:	15. 06. 2019 20:30

#	Program:	/corina/corina34_cracker 3.40 0067  02.08.2006

@<TRIPOS>MOLECULE
ASD03091438
  30   32    0    0    0
SMALL
NO_CHARGES


@<TRIPOS>ATOM
   1 C1             0.0264     1.6733    -0.0350 C.3     
   2 C2            -0.0044     0.1445    -0.0891 C.3     
   3 N3             0.6596    -0.4022     1.1012 N.3     
   4 C4            -0.0372     0.0012     2.3293 C.3     
   5 C5            -0.0080     1.5256     2.4573 C.3     
   6 C6             1.4473     2.0011     2.5219 C.3     
   7 N7             2.1037     1.6870     1.2455 N.am    
   8 C8             1.4824     2.1503    -0.0026 C.3     
   9 C9            -0.6862     2.1500     1.2342 C.3     
  10 C10            3.2546     0.9861     1.2201 C.2     
  11 O11            3.8156     0.7016     2.2594 O.2     
  12 O12            4.0151     0.2387    -2.1107 O.3     
  13 N13            3.2800     0.6821    -1.2539 N.2     
  14 C14            3.8367     0.5618    -0.0779 C.2     
  15 N15            5.0423    -0.0215    -0.2644 N.2     
  16 C16            5.1411    -0.2199    -1.5549 C.2     
  17 H17           -0.4717     2.0800    -0.9152 H       
  18 H18           -1.0391    -0.1972    -0.1169 H       
  19 H19            0.5151    -0.1978    -0.9841 H       
  20 H20            0.7372    -1.4065     1.0428 H       
  21 H21           -1.0716    -0.3401     2.2886 H       
  22 H22            0.4585    -0.4452     3.1913 H       
  23 H23           -0.5311     1.8259     3.3653 H       
  24 H24            1.4730     3.0776     2.6909 H       
  25 H25            1.9634     1.4891     3.3341 H       
  26 H26            2.0215     1.7364    -0.8548 H       
  27 H27            1.5112     3.2391    -0.0430 H       
  28 H28           -0.6260     3.2364     1.2994 H       
  29 H29           -1.7318     1.8438     1.2016 H       
  30 H30            5.9755    -0.6692    -2.0729 H       
@<TRIPOS>BOND
   1    1    2 1
   2    1    8 1
   3    1    9 1
   4    1   17 1
   5    2    3 1
   6    2   18 1
   7    2   19 1
   8    3    4 1
   9    3   20 1
  10    4    5 1
  11    4   21 1
  12    4   22 1
  13    5    6 1
  14    5    9 1
  15    5   23 1
  16    6    7 1
  17    6   24 1
  18    6   25 1
  19    7    8 1
  20    7   10 am
  21    8   26 1
  22    8   27 1
  23    9   28 1
  24    9   29 1
  25   10   11 2
  26   10   14 1
  27   12   13 1
  28   12   16 1
  29   13   14 2
  30   14   15 1
  31   15   16 2
  32   16   30 1

#	End of record

