#	Name: ASD03750006
#	Creating user name:	WinNT
#	Creation time:	15. 06. 2019 20:47

#	Modifying user name:	WinNT
#	Modification time:	15. 06. 2019 20:47

#	Program:	/corina/corina34_cracker 3.40 0067  02.08.2006

@<TRIPOS>MOLECULE
ASD03750006
  77   78    0    0    0
SMALL
NO_CHARGES


@<TRIPOS>ATOM
   1 C1             0.4713     1.5734     1.1279 C.3     
   2 O2             0.7468     0.2271     0.7359 O.3     
   3 C3             1.7891     2.3191     1.3538 C.3     
   4 O4             2.5617     1.6349     2.3422 O.3     
   5 S5             2.3848     2.1795     3.7524 S.o2    
   6 C6             2.5706     2.3690     0.0373 C.3     
   7 O7             2.9014     1.0407    -0.3728 O.3     
   8 S8             4.2883     0.5866     0.0595 S.o2    
   9 C9             1.7021     3.0349    -1.0344 C.3     
  10 O10            2.3932     3.0217    -2.2851 O.3     
  11 S11            3.1549     4.3048    -2.5850 S.o2    
  12 C12            0.3877     2.2615    -1.1680 C.3     
  13 O13           -0.2738     2.2266     0.0982 O.3     
  14 C14           -0.5106     2.9553    -2.1940 C.3     
  15 O15           -0.6745     4.3281    -1.8324 O.3     
  16 S16           -1.4747     5.1421    -2.8391 S.o2    
  17 O17           -0.6668    -0.6304     2.4007 O.3     
  18 C18           -1.5361    -0.3352     0.1513 C.3     
  19 S19           -3.2784     1.3821    -0.2268 S.o2    
  20 C20           -0.3178    -0.6867     1.0075 C.3     
  21 S21            0.0584    -3.6561    -1.2378 S.o2    
  22 C22            0.1392    -2.1276     0.7076 C.3     
  23 S23           -0.0530    -5.2258     2.8160 S.o2    
  24 C24           -0.0413    -2.8708     2.0536 C.3     
  25 S25           -1.8617    -1.3969     6.4796 S.o2    
  26 C26           -1.0590    -1.9639     2.7913 C.3     
  27 C27           -0.9376    -2.1392     4.3064 C.3     
  28 O28            3.3589     1.5305     4.5582 O.2     
  29 O29            2.2946     3.5922     3.6286 O.2     
  30 O30            1.0280     1.7042     4.2520 O.3     
  31 O31            4.5261    -0.6531    -0.5929 O.2     
  32 O32            5.1414     1.7145    -0.0799 O.2     
  33 O33            4.2187     0.2820     1.5491 O.3     
  34 O34            3.6646     4.1698    -3.9045 O.2     
  35 O35            2.3112     5.3755    -2.1836 O.2     
  36 O36            4.3624     4.3388    -1.6592 O.3     
  37 O37           -1.8935    -1.3026     4.9608 O.3     
  38 O38           -2.9887    -0.6707     6.9504 O.2     
  39 O39           -1.6322    -2.7640     6.7919 O.2     
  40 O40           -0.6316    -0.6356     6.9526 O.3     
  41 O41           -1.4137     6.4928    -2.4021 O.2     
  42 O42           -1.0454     4.7217    -4.1269 O.2     
  43 O43           -2.9295     4.7139    -2.7102 O.3     
  44 O44           -0.5800    -4.1780     1.8461 O.3     
  45 O45           -0.5267    -6.4809     2.3473 O.2     
  46 O46            1.3252    -4.9378     3.0080 O.2     
  47 O47           -0.7335    -4.9826     4.1555 O.3     
  48 O48           -2.0625     0.9265     0.5672 O.3     
  49 O49           -3.5621     2.7078     0.1991 O.2     
  50 O50           -3.0244     1.0387    -1.5820 O.2     
  51 O51           -4.4549     0.5261     0.2202 O.3     
  52 O52           -0.6850    -2.7138    -0.3019 O.3     
  53 O53           -0.8489    -3.9833    -2.2815 O.2     
  54 O54            1.3314    -3.0691    -1.4703 O.2     
  55 O55            0.3132    -4.9453    -0.4701 O.3     
  56 H56           -0.1083     1.5718     2.0511 H       
  57 H57            1.5799     3.3337     1.6930 H       
  58 H58            3.4849     2.9456     0.1777 H       
  59 H59            1.4921     4.0646    -0.7451 H       
  60 H60            0.5967     1.2436    -1.4971 H       
  61 H61           -0.0516     2.8918    -3.1806 H       
  62 H62           -1.4844     2.4661    -2.2141 H       
  63 H63           -1.2397    -0.2778    -0.8961 H       
  64 H64           -2.2988    -1.1045     0.2714 H       
  65 H65            1.1854    -2.1402     0.4022 H       
  66 H66            0.9009    -2.9219     2.5991 H       
  67 H67           -2.0750    -2.1779     2.4593 H       
  68 H68           -1.1266    -3.1803     4.5680 H       
  69 H69            0.0670    -1.8611     4.6249 H       
  70 H70            0.8139     1.9978     5.1482 H       
  71 H71            5.0559    -0.0179     1.9288 H       
  72 H72            4.9201     5.1212    -1.7687 H       
  73 H73           -0.5157    -0.6332     7.9126 H       
  74 H74           -3.5300     5.1749    -3.3118 H       
  75 H75           -0.4667    -5.6002     4.8501 H       
  76 H76           -5.3007     0.7852    -0.1704 H       
  77 H77            0.7849    -5.6192    -0.9785 H       
@<TRIPOS>BOND
   1    1    2 1
   2    1    3 1
   3    1   13 1
   4    1   56 1
   5    2   20 1
   6    3    4 1
   7    3    6 1
   8    3   57 1
   9    4    5 1
  10    5   28 2
  11    5   29 2
  12    5   30 1
  13    6    7 1
  14    6    9 1
  15    6   58 1
  16    7    8 1
  17    8   31 2
  18    8   32 2
  19    8   33 1
  20    9   10 1
  21    9   12 1
  22    9   59 1
  23   10   11 1
  24   11   34 2
  25   11   35 2
  26   11   36 1
  27   12   13 1
  28   12   14 1
  29   12   60 1
  30   14   15 1
  31   14   61 1
  32   14   62 1
  33   15   16 1
  34   16   41 2
  35   16   42 2
  36   16   43 1
  37   17   20 1
  38   17   26 1
  39   18   20 1
  40   18   48 1
  41   18   63 1
  42   18   64 1
  43   19   48 1
  44   19   49 2
  45   19   50 2
  46   19   51 1
  47   20   22 1
  48   21   52 1
  49   21   53 2
  50   21   54 2
  51   21   55 1
  52   22   24 1
  53   22   52 1
  54   22   65 1
  55   23   44 1
  56   23   45 2
  57   23   46 2
  58   23   47 1
  59   24   26 1
  60   24   44 1
  61   24   66 1
  62   25   37 1
  63   25   38 2
  64   25   39 2
  65   25   40 1
  66   26   27 1
  67   26   67 1
  68   27   37 1
  69   27   68 1
  70   27   69 1
  71   30   70 1
  72   33   71 1
  73   36   72 1
  74   40   73 1
  75   43   74 1
  76   47   75 1
  77   51   76 1
  78   55   77 1

#	End of record

