#	Name: ASD01230104
#	Creating user name:	WinNT
#	Creation time:	15. 06. 2019 19:11

#	Modifying user name:	WinNT
#	Modification time:	15. 06. 2019 19:11

#	Program:	/corina/corina34_cracker 3.40 0067  02.08.2006

@<TRIPOS>MOLECULE
ASD01230104
  49   53    0    0    0
SMALL
NO_CHARGES


@<TRIPOS>ATOM
   1 N1            -0.0167     1.3826     0.0096 N.am    
   2 C2             0.0021    -0.0041     0.0020 C.2     
   3 N3            -1.1468    -0.7331     0.0091 N.pl3   
   4 C4            -2.3865    -0.1013     0.0238 C.ar    
   5 C5            -2.4442     1.3032     0.0315 C.ar    
   6 C6            -1.1819     2.0620     0.0300 C.2     
   7 C7             1.0431    -0.8875    -0.0127 C.2     
   8 C8             0.5118    -2.1778    -0.0145 C.2     
   9 N9            -0.7941    -2.0900    -0.0015 N.2     
  10 C10           -3.5601    -0.8352     0.0306 C.ar    
  11 C11           -4.7856    -0.1731     0.0449 C.ar    
  12 C12           -4.8327     1.2234     0.0525 C.ar    
  13 C13           -3.6785     1.9539     0.0459 C.ar    
  14 C14            1.3077    -3.4573    -0.0299 C.3     
  15 C15            1.2485     2.1210     0.0015 C.3     
  16 C16            2.5794    -3.2597    -0.8607 C.3     
  17 O17           -1.1900     3.2788     0.0369 O.2     
  18 C18           -6.0457    -0.9537     0.0517 C.ar    
  19 C19           -6.0137    -2.3462     0.0438 C.ar    
  20 N20           -7.1311    -3.0442     0.0499 N.ar    
  21 C21           -8.3193    -2.4582     0.0639 C.ar    
  22 C22           -8.4312    -1.0703     0.0725 C.ar    
  23 C23           -7.2845    -0.3016     0.0720 C.ar    
  24 N24           -9.4678    -3.2381     0.0697 N.pl3   
  25 C25            1.7000    -3.8340     1.4021 C.3     
  26 C26            2.5739    -5.0906     1.3697 C.3     
  27 O27            3.7233    -4.8490     0.5556 O.3     
  28 C28            3.4193    -4.5385    -0.8057 C.3     
  29 H29            2.0925    -0.6326    -0.0219 H       
  30 H30           -3.5258    -1.9146     0.0244 H       
  31 H31           -5.7874     1.7282     0.0636 H       
  32 H32           -3.7211     3.0331     0.0522 H       
  33 H33            0.7065    -4.2555    -0.4652 H       
  34 H34            1.5525     2.3097    -1.0281 H       
  35 H35            1.1187     3.0701     0.5217 H       
  36 H36            2.0158     1.5328     0.5049 H       
  37 H37            2.3093    -3.0455    -1.8948 H       
  38 H38            3.1548    -2.4282    -0.4538 H       
  39 H39           -5.0632    -2.8589     0.0323 H       
  40 H40           -9.4037    -0.6008     0.0832 H       
  41 H41           -7.3417     0.7769     0.0786 H       
  42 H42           -9.3972    -4.2055     0.0635 H       
  43 H43          -10.3409    -2.8157     0.0800 H       
  44 H44            2.2577    -3.0141     1.8547 H       
  45 H45            0.8010    -4.0305     1.9863 H       
  46 H46            2.8914    -5.3388     2.3824 H       
  47 H47            2.0022    -5.9204     0.9542 H       
  48 H48            2.8586    -5.3611    -1.2497 H       
  49 H49            4.3458    -4.3889    -1.3601 H       
@<TRIPOS>BOND
   1    1    2 1
   2    1   15 1
   3    1    6 am
   4    2    3 1
   5    2    7 2
   6    3    4 1
   7    3    9 1
   8    4    5 ar
   9    4   10 ar
  10    5    6 1
  11    5   13 ar
  12    6   17 2
  13    7    8 1
  14    7   29 1
  15    8    9 2
  16    8   14 1
  17   10   11 ar
  18   10   30 1
  19   11   12 ar
  20   11   18 1
  21   12   13 ar
  22   12   31 1
  23   13   32 1
  24   14   25 1
  25   14   16 1
  26   14   33 1
  27   15   34 1
  28   15   35 1
  29   15   36 1
  30   16   28 1
  31   16   37 1
  32   16   38 1
  33   18   19 ar
  34   18   23 ar
  35   19   20 ar
  36   19   39 1
  37   20   21 ar
  38   21   22 ar
  39   21   24 1
  40   22   23 ar
  41   22   40 1
  42   23   41 1
  43   24   42 1
  44   24   43 1
  45   25   26 1
  46   25   44 1
  47   25   45 1
  48   26   27 1
  49   26   46 1
  50   26   47 1
  51   27   28 1
  52   28   48 1
  53   28   49 1

#	End of record

