#	Name: ASD01915822
#	Creating user name:	WinNT
#	Creation time:	15. 06. 2019 20:06

#	Modifying user name:	WinNT
#	Modification time:	15. 06. 2019 20:06

#	Program:	/corina/corina34_cracker 3.40 0067  02.08.2006

@<TRIPOS>MOLECULE
ASD01915822
  42   45    0    0    0
SMALL
NO_CHARGES


@<TRIPOS>ATOM
   1 C1            -0.0045     1.4583     0.2036 C.2     
   2 N2             0.0577     0.1023    -0.0275 N.pl3   
   3 C3            -1.1576    -0.6827    -0.2753 C.3     
   4 C4            -2.3312    -0.0442     0.4656 C.3     
   5 N5            -2.4044     1.3988     0.2637 N.am    
   6 C6            -1.2904     2.1701     0.2527 C.2     
   7 C7             1.2799     1.8953     0.3676 C.2     
   8 C8             2.0733     0.7477     0.2349 C.2     
   9 N9             1.2770    -0.2708     0.0078 N.2     
  10 C10            3.5760     0.6929     0.3346 C.3     
  11 O11            4.0847     2.0038     0.5889 O.3     
  12 C12            5.4326     2.1303     0.7075 C.ar    
  13 O13           -1.3508     3.3850     0.2823 O.2     
  14 C14            5.9947     3.3744     0.9545 C.ar    
  15 C15            6.2484     1.0147     0.5875 C.ar    
  16 C16            7.6183     1.1459     0.7084 C.ar    
  17 C17            8.1764     2.3878     0.9489 C.ar    
  18 C18            7.3651     3.5003     1.0746 C.ar    
  19 C19           -3.6530     1.9997     0.0768 C.2     
  20 C20           -4.8327     1.3729     0.1707 C.2     
  21 C21           -5.9390     2.1789    -0.0561 C.2     
  22 C22           -5.6557     3.4564    -0.3332 C.2     
  23 S23           -3.9136     3.6953    -0.3100 S.3     
  24 O24           -6.5754     4.4246    -0.5891 O.3     
  25 C25           -6.0777     5.7354    -0.8652 C.3     
  26 H26           -1.3682    -0.6994    -1.3447 H       
  27 H27           -1.0120    -1.7017     0.0833 H       
  28 H28           -3.2582    -0.4966     0.1133 H       
  29 H29           -2.2263    -0.2458     1.5317 H       
  30 H30            1.6114     2.9053     0.5581 H       
  31 H31            3.8620     0.0278     1.1495 H       
  32 H32            3.9889     0.3182    -0.6020 H       
  33 H33            5.3614     4.2438     1.0524 H       
  34 H34            5.8129     0.0443     0.4000 H       
  35 H35            8.2538     0.2776     0.6154 H       
  36 H36            9.2476     2.4883     1.0432 H       
  37 H37            7.8035     4.4694     1.2621 H       
  38 H38           -4.9164     0.3218     0.4044 H       
  39 H39           -6.9508     1.8038    -0.0126 H       
  40 H40           -5.5050     6.0942    -0.0099 H       
  41 H41           -5.4349     5.7022    -1.7448 H       
  42 H42           -6.9137     6.4097    -1.0513 H       
@<TRIPOS>BOND
   1    1    2 1
   2    1    7 2
   3    1    6 1
   4    2    3 1
   5    2    9 1
   6    3    4 1
   7    3   26 1
   8    3   27 1
   9    4    5 1
  10    4   28 1
  11    4   29 1
  12    5    6 am
  13    5   19 1
  14    6   13 2
  15    7    8 1
  16    7   30 1
  17    8    9 2
  18    8   10 1
  19   10   11 1
  20   10   31 1
  21   10   32 1
  22   11   12 1
  23   12   14 ar
  24   12   15 ar
  25   14   18 ar
  26   14   33 1
  27   15   16 ar
  28   15   34 1
  29   16   17 ar
  30   16   35 1
  31   17   18 ar
  32   17   36 1
  33   18   37 1
  34   19   20 2
  35   19   23 1
  36   20   21 1
  37   20   38 1
  38   21   22 2
  39   21   39 1
  40   22   23 1
  41   22   24 1
  42   24   25 1
  43   25   40 1
  44   25   41 1
  45   25   42 1

#	End of record

