#	Name: ASD01820239
#	Creating user name:	WinNT
#	Creation time:	15. 06. 2019 19:36

#	Modifying user name:	WinNT
#	Modification time:	15. 06. 2019 19:36

#	Program:	/corina/corina34_cracker 3.40 0067  02.08.2006

@<TRIPOS>MOLECULE
ASD01820239
  51   53    0    0    0
SMALL
NO_CHARGES


@<TRIPOS>ATOM
   1 O1            -4.1214    -8.0994    -4.2817 O.3     
   2 C2            -5.5049    -8.2102    -4.6217 C.3     
   3 C3            -6.3187    -7.2318    -3.7725 C.3     
   4 O4            -5.9532    -5.8917    -4.1081 O.3     
   5 N5            -6.6527    -4.9030    -3.3744 N.am    
   6 C6            -6.4021    -3.5972    -3.5945 C.2     
   7 O7            -5.5751    -3.2680    -4.4233 O.2     
   8 C8            -7.1298    -2.5686    -2.8312 C.ar    
   9 C9            -8.1907    -2.9321    -1.9966 C.ar    
  10 C10           -8.8679    -1.9677    -1.2847 C.ar    
  11 C11          -10.0110    -2.3637    -0.3861 C.3     
  12 N12           -9.6063    -2.2134     1.0139 N.am    
  13 O13          -10.2256    -1.2114     1.7898 O.3     
  14 C14          -10.1050    -1.3846     3.2028 C.3     
  15 C15           -8.6304    -1.6331     3.5432 C.3     
  16 C16           -8.2121    -2.9739     2.9318 C.3     
  17 C17           -8.6696    -3.0368     1.4998 C.2     
  18 O18           -8.1670    -3.8550     0.7591 O.2     
  19 C19           -8.5027    -0.6322    -1.3900 C.ar    
  20 C20           -7.4547    -0.2564    -2.2124 C.ar    
  21 C21           -6.7577    -1.2184    -2.9336 C.ar    
  22 N22           -5.7044    -0.8447    -3.7610 N.pl3   
  23 C23           -5.9572    -0.4419    -5.0765 C.ar    
  24 C24           -7.2441    -0.5157    -5.5915 C.ar    
  25 C25           -7.4910    -0.1172    -6.8913 C.ar    
  26 C26           -6.4580     0.3552    -7.6801 C.ar    
  27 C27           -5.1733     0.4302    -7.1714 C.ar    
  28 C28           -4.9203     0.0390    -5.8699 C.ar    
  29 F29           -3.6662     0.1126    -5.3729 F       
  30 I30           -6.8389     0.9578    -9.6501 I       
  31 F31           -7.1061     1.0452    -2.3102 F       
  32 F32           -9.1741     0.3054    -0.6862 F       
  33 H33           -3.5445    -8.6923    -4.7825 H       
  34 H34           -5.6397    -7.9743    -5.6773 H       
  35 H35           -5.8456    -9.2278    -4.4304 H       
  36 H36           -7.3811    -7.3782    -3.9673 H       
  37 H37           -6.1150    -7.4104    -2.7167 H       
  38 H38           -7.3123    -5.1656    -2.7134 H       
  39 H39           -8.4793    -3.9693    -1.9106 H       
  40 H40          -10.8697    -1.7230    -0.5868 H       
  41 H41          -10.2802    -3.4025    -0.5770 H       
  42 H42          -10.4514    -0.4854     3.7123 H       
  43 H43          -10.7024    -2.2398     3.5187 H       
  44 H44           -8.0179    -0.8330     3.1275 H       
  45 H45           -8.5044    -1.6679     4.6254 H       
  46 H46           -7.1272    -3.0699     2.9739 H       
  47 H47           -8.6713    -3.7881     3.4924 H       
  48 H48           -4.7943    -0.8633    -3.4258 H       
  49 H49           -8.0518    -0.8847    -4.9767 H       
  50 H50           -8.4923    -0.1750    -7.2919 H       
  51 H51           -4.3686     0.7989    -7.7902 H       
@<TRIPOS>BOND
   1    1    2 1
   2    1   33 1
   3    2    3 1
   4    2   34 1
   5    2   35 1
   6    3    4 1
   7    3   36 1
   8    3   37 1
   9    4    5 1
  10    5    6 am
  11    5   38 1
  12    6    7 2
  13    6    8 1
  14    8    9 ar
  15    8   21 ar
  16    9   10 ar
  17    9   39 1
  18   10   11 1
  19   10   19 ar
  20   11   12 1
  21   11   40 1
  22   11   41 1
  23   12   13 1
  24   12   17 am
  25   13   14 1
  26   14   15 1
  27   14   42 1
  28   14   43 1
  29   15   16 1
  30   15   44 1
  31   15   45 1
  32   16   17 1
  33   16   46 1
  34   16   47 1
  35   17   18 2
  36   19   20 ar
  37   19   32 1
  38   20   21 ar
  39   20   31 1
  40   21   22 1
  41   22   23 1
  42   22   48 1
  43   23   24 ar
  44   23   28 ar
  45   24   25 ar
  46   24   49 1
  47   25   26 ar
  48   25   50 1
  49   26   27 ar
  50   26   30 1
  51   27   28 ar
  52   27   51 1
  53   28   29 1

#	End of record

