#	Name: ASD02198282
#	Creating user name:	WinNT
#	Creation time:	15. 06. 2019 20:19

#	Modifying user name:	WinNT
#	Modification time:	15. 06. 2019 20:19

#	Program:	/corina/corina34_cracker 3.40 0067  02.08.2006

@<TRIPOS>MOLECULE
ASD02198282
  43   46    0    0    0
SMALL
NO_CHARGES


@<TRIPOS>ATOM
   1 C1            -0.0167     1.3799     0.0096 C.2     
   2 C2             0.0021    -0.0041     0.0020 C.2     
   3 S3             1.6544     1.9377    -0.0033 S.3     
   4 C4             2.2112     0.3224    -0.0173 C.2     
   5 N5             1.2119    -0.5125    -0.0123 N.2     
   6 N6            -1.1462    -0.7784     0.0093 N.pl3   
   7 C7            -1.1641     2.1948     0.0198 C.2     
   8 O8            -2.2731     1.6867     0.0225 O.2     
   9 C9            -1.0256     3.6646     0.0271 C.2     
  10 N10            3.5365    -0.0463    -0.0315 N.pl3   
  11 C11            3.9020    -1.4650    -0.0427 C.3     
  12 C12           -2.0378     4.5829     0.0371 C.2     
  13 C13           -1.3617     5.8326     0.0414 C.2     
  14 N14           -0.0809     5.5582     0.0339 N.2     
  15 O15            0.1228     4.3668     0.0311 O.3     
  16 C16           -1.9831     7.1808     0.0522 C.ar    
  17 C17           -1.1813     8.3201     0.0552 C.ar    
  18 C18            5.2966    -1.6451    -0.6675 C.3     
  19 C19           -3.3701     7.3113     0.0535 C.ar    
  20 C20           -3.9426     8.5671     0.0635 C.ar    
  21 C21           -3.1419     9.6949     0.0723 C.ar    
  22 C22           -1.7642     9.5712     0.0653 C.ar    
  23 C23            6.1875    -2.2816     0.4192 C.3     
  24 C24            5.1856    -2.9873     1.3664 C.3     
  25 C25            3.9941    -1.9983     1.4019 C.3     
  26 H26           -2.0179    -0.3531     0.0202 H       
  27 H27           -1.0787    -1.7460     0.0034 H       
  28 H28            4.2289     0.6329    -0.0342 H       
  29 H29            3.1639    -2.0360    -0.6060 H       
  30 H30           -3.1024     4.4011     0.0405 H       
  31 H31           -0.1055     8.2246     0.0501 H       
  32 H32            5.2355    -2.3042    -1.5335 H       
  33 H33            5.7014    -0.6770    -0.9624 H       
  34 H34           -3.9962     6.4313     0.0462 H       
  35 H35           -5.0178     8.6694     0.0642 H       
  36 H36           -3.5939    10.6757     0.0799 H       
  37 H37           -1.1436    10.4550     0.0726 H       
  38 H38            6.8697    -3.0072    -0.0236 H       
  39 H39            6.7429    -1.5124     0.9559 H       
  40 H40            4.8774    -3.9488     0.9558 H       
  41 H41            5.6151    -3.1105     2.3606 H       
  42 H42            4.1953    -1.1834     2.0973 H       
  43 H43            3.0756    -2.5172     1.6763 H       
@<TRIPOS>BOND
   1    1    2 2
   2    1    3 1
   3    1    7 1
   4    2    6 1
   5    2    5 1
   6    3    4 1
   7    4    5 2
   8    4   10 1
   9    6   26 1
  10    6   27 1
  11    7    8 2
  12    7    9 1
  13    9   12 2
  14    9   15 1
  15   10   11 1
  16   10   28 1
  17   11   18 1
  18   11   25 1
  19   11   29 1
  20   12   13 1
  21   12   30 1
  22   13   14 2
  23   13   16 1
  24   14   15 1
  25   16   17 ar
  26   16   19 ar
  27   17   22 ar
  28   17   31 1
  29   18   23 1
  30   18   32 1
  31   18   33 1
  32   19   20 ar
  33   19   34 1
  34   20   21 ar
  35   20   35 1
  36   21   22 ar
  37   21   36 1
  38   22   37 1
  39   23   24 1
  40   23   38 1
  41   23   39 1
  42   24   25 1
  43   24   40 1
  44   24   41 1
  45   25   42 1
  46   25   43 1

#	End of record

