#	Name: ASD01940287
#	Creating user name:	WinNT
#	Creation time:	15. 06. 2019 20:12

#	Modifying user name:	WinNT
#	Modification time:	15. 06. 2019 20:12

#	Program:	/corina/corina34_cracker 3.40 0067  02.08.2006

@<TRIPOS>MOLECULE
ASD01940287
  30   31    0    0    0
SMALL
NO_CHARGES


@<TRIPOS>ATOM
   1 C1            -0.0136     1.4134     0.1798 C.ar    
   2 C2             0.0634     0.0338     0.0062 C.ar    
   3 C3             1.2827    -0.6162     0.1610 C.ar    
   4 C4             2.4181     0.1098     0.4873 C.ar    
   5 C5             2.3402     1.4813     0.6600 C.ar    
   6 C6             1.1280     2.1343     0.5067 C.ar    
   7 N7            -1.2394     2.0741     0.0192 N.pl3   
   8 N8            -1.0882    -0.6994    -0.3239 N.pl3   
   9 O9             1.3617    -1.9640    -0.0073 O.3     
  10 C10            2.6462    -2.5654     0.1671 C.3     
  11 C11           -1.2668     3.4573    -0.1834 C.ar    
  12 C12           -0.8774     3.9894    -1.4069 C.ar    
  13 C13           -0.9059     5.3562    -1.6046 C.ar    
  14 C14           -1.3216     6.1959    -0.5847 C.ar    
  15 C15           -1.7095     5.6679     0.6350 C.ar    
  16 C16           -1.6887     4.3012     0.8355 C.ar    
  17 I17           -0.2471     2.7197    -2.9495 I       
  18 F18           -1.3482     7.5324    -0.7801 F       
  19 F19            1.0561     3.4729     0.6751 F       
  20 F20            3.4489     2.1844     0.9788 F       
  21 H21            3.3649    -0.3957     0.6074 H       
  22 H22           -2.0687     1.5717     0.0487 H       
  23 H23           -1.9383    -0.2449    -0.4312 H       
  24 H24           -1.0333    -1.6603    -0.4445 H       
  25 H25            3.3474    -2.1390    -0.5503 H       
  26 H26            3.0019    -2.3753     1.1797 H       
  27 H27            2.5691    -3.6405     0.0048 H       
  28 H28           -0.6034     5.7703    -2.5551 H       
  29 H29           -2.0330     6.3248     1.4288 H       
  30 H30           -1.9960     3.8897     1.7856 H       
@<TRIPOS>BOND
   1    1    2 ar
   2    1    6 ar
   3    1    7 1
   4    2    3 ar
   5    2    8 1
   6    3    4 ar
   7    3    9 1
   8    4    5 ar
   9    4   21 1
  10    5    6 ar
  11    5   20 1
  12    6   19 1
  13    7   11 1
  14    7   22 1
  15    8   23 1
  16    8   24 1
  17    9   10 1
  18   10   25 1
  19   10   26 1
  20   10   27 1
  21   11   12 ar
  22   11   16 ar
  23   12   13 ar
  24   12   17 1
  25   13   14 ar
  26   13   28 1
  27   14   15 ar
  28   14   18 1
  29   15   16 ar
  30   15   29 1
  31   16   30 1

#	End of record

