#	Name: ASD09900028
#	Creating user name:	WinNT
#	Creation time:	15. 06. 2019 21:24

#	Modifying user name:	WinNT
#	Modification time:	15. 06. 2019 21:24

#	Program:	/corina/corina34_cracker 3.40 0067  02.08.2006

@<TRIPOS>MOLECULE
ASD09900028
  28   29    0    0    0
SMALL
NO_CHARGES


@<TRIPOS>ATOM
   1 C1            -0.0164     1.3598     0.0095 C.ar    
   2 C2             0.0021    -0.0041     0.0020 C.ar    
   3 C3             1.2058    -0.6981    -0.0128 C.ar    
   4 C4             2.4044    -0.0196    -0.0201 C.ar    
   5 C5             2.4094     1.3702    -0.0131 C.ar    
   6 C6             1.1893     2.0745     0.0018 C.ar    
   7 N7             3.4019     2.3228    -0.0173 N.pl3   
   8 C8             2.7851     3.5463    -0.0055 C.2     
   9 N9             1.4860     3.3862     0.0061 N.2     
  10 C10            3.4822     4.8512    -0.0043 C.2     
  11 O11            4.6969     4.8913    -0.0141 O.2     
  12 N12            2.7702     5.9955     0.0078 N.am    
  13 C13            3.4605     7.2877     0.0091 C.3     
  14 C14            3.7998     7.6861    -1.4287 C.3     
  15 C15            2.5528     8.3502     0.6320 C.3     
  16 H16           -0.9584     1.8881     0.0169 H       
  17 H17           -0.9293    -0.5507     0.0080 H       
  18 H18            1.2015    -1.7781    -0.0182 H       
  19 H19            3.3364    -0.5652    -0.0309 H       
  20 H20            4.3580     2.1592    -0.0267 H       
  21 H21            1.8008     5.9635     0.0157 H       
  22 H22            4.3791     7.2084     0.5905 H       
  23 H23            4.3134     8.6475    -1.4277 H       
  24 H24            4.4465     6.9291    -1.8724 H       
  25 H25            2.8813     7.7654    -2.0101 H       
  26 H26            2.3111     8.0664     1.6563 H       
  27 H27            3.0664     9.3116     0.6329 H       
  28 H28            1.6342     8.4295     0.0505 H       
@<TRIPOS>BOND
   1    1    2 ar
   2    1    6 ar
   3    1   16 1
   4    2    3 ar
   5    2   17 1
   6    3    4 ar
   7    3   18 1
   8    4    5 ar
   9    4   19 1
  10    5    7 1
  11    5    6 ar
  12    6    9 1
  13    7    8 1
  14    7   20 1
  15    8    9 2
  16    8   10 1
  17   10   11 2
  18   10   12 am
  19   12   13 1
  20   12   21 1
  21   13   14 1
  22   13   15 1
  23   13   22 1
  24   14   23 1
  25   14   24 1
  26   14   25 1
  27   15   26 1
  28   15   27 1
  29   15   28 1

#	End of record

