#	Name: ASD01100060
#	Creating user name:	WinNT
#	Creation time:	15. 06. 2019 18:58

#	Modifying user name:	WinNT
#	Modification time:	15. 06. 2019 18:58

#	Program:	/corina/corina34_cracker 3.40 0067  02.08.2006

@<TRIPOS>MOLECULE
ASD01100060
  47   49    0    0    0
SMALL
NO_CHARGES


@<TRIPOS>ATOM
   1 C1             0.2695     1.7659    -2.0914 C.ar    
   2 C2            -0.0218     0.4588    -1.7436 C.ar    
   3 C3             0.8592    -0.2593    -0.9549 C.ar    
   4 C4             2.0298     0.3293    -0.5148 C.ar    
   5 C5             2.3203     1.6353    -0.8626 C.ar    
   6 C6             1.4403     2.3534    -1.6507 C.ar    
   7 C7             3.5965     2.2766    -0.3820 C.3     
   8 C8             3.2679     3.3499     0.6578 C.3     
   9 C9             2.7081     2.6854     1.9171 C.3     
  10 C10            4.5395     4.1235     1.0116 C.3     
  11 Cl11          -1.4925    -0.2796    -2.2963 Cl      
  12 C12            4.3110     2.9093    -1.5483 C.2     
  13 N13            5.6349     3.1513    -1.4768 N.am    
  14 O14            3.6946     3.2005    -2.5514 O.2     
  15 C15            6.3120     3.6408    -2.5855 C.2     
  16 N16            5.7655     3.8985    -3.7339 N.2     
  17 C17            6.5527     4.3588    -4.6823 C.2     
  18 C18            7.8430     4.4987    -4.3136 C.2     
  19 S19            7.9833     3.9969    -2.6306 S.3     
  20 C20            2.2273     4.3139     0.0843 C.3     
  21 C21           10.2389     5.0866    -4.6584 C.ar    
  22 C22            8.9432     4.9908    -5.1689 C.ar    
  23 C23            8.6913     5.3615    -6.4910 C.ar    
  24 C24            9.7230     5.8197    -7.2840 C.ar    
  25 C25           11.0049     5.9121    -6.7718 C.ar    
  26 C26           11.2614     5.5463    -5.4623 C.ar    
  27 H27           -0.4158     2.3255    -2.7107 H       
  28 H28            0.6322    -1.2796    -0.6828 H       
  29 H29            2.7175    -0.2311     0.1012 H       
  30 H30            1.6678     3.3737    -1.9220 H       
  31 H31            4.2370     1.5184     0.0685 H       
  32 H32            3.4494     1.9986     2.3257 H       
  33 H33            2.4740     3.4500     2.6579 H       
  34 H34            1.8021     2.1342     1.6651 H       
  35 H35            5.0116     4.4841     0.0977 H       
  36 H36            4.2840     4.9712     1.6474 H       
  37 H37            5.2289     3.4665     1.5418 H       
  38 H38            6.1146     2.9836    -0.6506 H       
  39 H39            6.1964     4.6038    -5.6719 H       
  40 H40            1.3026     3.7729    -0.1164 H       
  41 H41            2.0340     5.1097     0.8036 H       
  42 H42            2.6042     4.7458    -0.8428 H       
  43 H43           10.4396     4.8055    -3.6351 H       
  44 H44            7.6912     5.2895    -6.8921 H       
  45 H45            9.5296     6.1065    -8.3072 H       
  46 H46           11.8090     6.2714    -7.3969 H       
  47 H47           12.2643     5.6209    -5.0686 H       
@<TRIPOS>BOND
   1    1    2 ar
   2    1    6 ar
   3    1   27 1
   4    2    3 ar
   5    2   11 1
   6    3    4 ar
   7    3   28 1
   8    4    5 ar
   9    4   29 1
  10    5    6 ar
  11    5    7 1
  12    6   30 1
  13    7    8 1
  14    7   12 1
  15    7   31 1
  16    8    9 1
  17    8   10 1
  18    8   20 1
  19    9   32 1
  20    9   33 1
  21    9   34 1
  22   10   35 1
  23   10   36 1
  24   10   37 1
  25   12   13 am
  26   12   14 2
  27   13   15 1
  28   13   38 1
  29   15   16 2
  30   15   19 1
  31   16   17 1
  32   17   18 2
  33   17   39 1
  34   18   19 1
  35   18   22 1
  36   20   40 1
  37   20   41 1
  38   20   42 1
  39   21   22 ar
  40   21   26 ar
  41   21   43 1
  42   22   23 ar
  43   23   24 ar
  44   23   44 1
  45   24   25 ar
  46   24   45 1
  47   25   26 ar
  48   25   46 1
  49   26   47 1

#	End of record

