#	Name: ASD01120309
#	Creating user name:	WinNT
#	Creation time:	15. 06. 2019 18:59

#	Modifying user name:	WinNT
#	Modification time:	15. 06. 2019 18:59

#	Program:	/corina/corina34_cracker 3.40 0067  02.08.2006

@<TRIPOS>MOLECULE
ASD01120309
  36   38    0    0    0
SMALL
NO_CHARGES


@<TRIPOS>ATOM
   1 C1             0.1963     1.5017    -0.0089 C.3     
   2 C2             0.1593    -0.0049    -0.0123 C.ar    
   3 C3             0.8839    -0.7107    -0.9553 C.ar    
   4 C4             0.8526    -2.0913    -0.9609 C.ar    
   5 C5             0.0920    -2.7711    -0.0178 C.ar    
   6 C6            -0.6348    -2.0589     0.9281 C.ar    
   7 C7            -0.5947    -0.6785     0.9313 C.ar    
   8 N8             0.0576    -4.1677    -0.0209 N.pl3   
   9 C9            -0.0499    -4.8587    -1.2247 C.ar    
  10 C10           -0.2791    -4.1724    -2.4034 C.ar    
  11 C11           -0.3873    -4.8577    -3.6043 C.ar    
  12 C12           -0.2690    -6.2299    -3.6458 C.ar    
  13 C13           -0.0377    -6.9470    -2.4753 C.ar    
  14 C14            0.0796    -6.2606    -1.2514 C.ar    
  15 C15            0.3088    -7.2317    -0.2511 C.2     
  16 C16            0.3278    -8.4516    -0.8537 C.2     
  17 N17            0.1215    -8.2874    -2.2121 N.pl3   
  18 C18            0.5382    -9.7341    -0.1734 C.2     
  19 O19            0.7151    -9.7626     1.0293 O.2     
  20 O20            0.5356   -10.8818    -0.8820 O.3     
  21 N21           -0.3885    -6.9429    -4.9376 N.pl3   
  22 O22           -0.5913    -6.3167    -5.9624 O.2     
  23 O23           -0.2841    -8.1559    -4.9756 O.2     
  24 H24           -0.6017     1.8861    -0.6441 H       
  25 H25            0.0581     1.8663     1.0089 H       
  26 H26            1.1594     1.8423    -0.3892 H       
  27 H27            1.4747    -0.1816    -1.6884 H       
  28 H28            1.4184    -2.6419    -1.6979 H       
  29 H29           -1.2271    -2.5842     1.6627 H       
  30 H30           -1.1591    -0.1242     1.6665 H       
  31 H31            0.1087    -4.6559     0.8157 H       
  32 H32           -0.3747    -3.0968    -2.3885 H       
  33 H33           -0.5667    -4.3096    -4.5174 H       
  34 H34            0.4449    -7.0401     0.8030 H       
  35 H35            0.0892    -9.0002    -2.8691 H       
  36 H36            0.6784   -11.7019    -0.3899 H       
@<TRIPOS>BOND
   1    1    2 1
   2    1   24 1
   3    1   25 1
   4    1   26 1
   5    2    3 ar
   6    2    7 ar
   7    3    4 ar
   8    3   27 1
   9    4    5 ar
  10    4   28 1
  11    5    6 ar
  12    5    8 1
  13    6    7 ar
  14    6   29 1
  15    7   30 1
  16    8    9 1
  17    8   31 1
  18    9   10 ar
  19    9   14 ar
  20   10   11 ar
  21   10   32 1
  22   11   12 ar
  23   11   33 1
  24   12   13 ar
  25   12   21 1
  26   13   14 ar
  27   13   17 1
  28   14   15 1
  29   15   16 2
  30   15   34 1
  31   16   17 1
  32   16   18 1
  33   17   35 1
  34   18   19 2
  35   18   20 1
  36   20   36 1
  37   21   22 2
  38   21   23 2

#	End of record

