#	Name: ASD01884266
#	Creating user name:	WinNT
#	Creation time:	15. 06. 2019 19:47

#	Modifying user name:	WinNT
#	Modification time:	15. 06. 2019 19:47

#	Program:	/corina/corina34_cracker 3.40 0067  02.08.2006

@<TRIPOS>MOLECULE
ASD01884266
  25   27    0    0    0
SMALL
NO_CHARGES


@<TRIPOS>ATOM
   1 C1            -0.0167     1.3803     0.0096 C.ar    
   2 C2             0.0021    -0.0041     0.0020 C.ar    
   3 C3            -1.1692    -0.7250     0.0093 C.ar    
   4 C4            -2.4125    -0.0745     0.0252 C.ar    
   5 C5            -2.4107     1.3208     0.0331 C.ar    
   6 C6            -1.2304     2.0431     0.0306 C.ar    
   7 N7            -3.6724    -0.6461     0.0350 N.am    
   8 C8            -4.7402     0.1576     0.0506 C.2     
   9 S9            -4.1096     1.8130     0.0535 S.3     
  10 Br10          -1.2770     3.9335     0.0423 Br      
  11 I11            1.7777     2.4615    -0.0017 I       
  12 O12           -5.9097    -0.1798     0.0605 O.2     
  13 C13           -3.8328    -2.1022     0.0279 C.3     
  14 C14           -3.8734    -2.6179     1.4678 C.3     
  15 C15           -4.1540    -4.1073     1.6771 C.3     
  16 C16           -2.7481    -3.5528     1.9154 C.3     
  17 F17           -1.7607    -3.8708     0.9767 F       
  18 F18           -2.3105    -3.4491     3.2402 F       
  19 H19            0.9484    -0.5244    -0.0102 H       
  20 H20           -1.1316    -1.8043     0.0025 H       
  21 H21           -4.7625    -2.3629    -0.4778 H       
  22 H22           -2.9934    -2.5576    -0.4976 H       
  23 H23           -4.2732    -1.9219     2.2053 H       
  24 H24           -4.7381    -4.3912     2.5526 H       
  25 H25           -4.3097    -4.7198     0.7890 H       
@<TRIPOS>BOND
   1    1    2 ar
   2    1   11 1
   3    1    6 ar
   4    2    3 ar
   5    2   19 1
   6    3    4 ar
   7    3   20 1
   8    4    5 ar
   9    4    7 1
  10    5    6 ar
  11    5    9 1
  12    6   10 1
  13    7    8 am
  14    7   13 1
  15    8    9 1
  16    8   12 2
  17   13   14 1
  18   13   21 1
  19   13   22 1
  20   14   15 1
  21   14   16 1
  22   14   23 1
  23   15   16 1
  24   15   24 1
  25   15   25 1
  26   16   17 1
  27   16   18 1

#	End of record

