#	Name: ASD09116477
#	Creating user name:	WinNT
#	Creation time:	15. 06. 2019 21:21

#	Modifying user name:	WinNT
#	Modification time:	15. 06. 2019 21:21

#	Program:	/corina/corina34_cracker 3.40 0067  02.08.2006

@<TRIPOS>MOLECULE
ASD09116477
  77   82    0    0    0
SMALL
NO_CHARGES


@<TRIPOS>ATOM
   1 N1            -0.0590     1.5293    -0.5339 N.2     
   2 N2            -0.0823     0.2529    -1.1188 N.pl3   
   3 C3             1.1947     1.9132    -0.5026 C.2     
   4 N4             1.9587     0.9515    -1.0340 N.2     
   5 C5             1.2027    -0.0574    -1.4107 C.2     
   6 N6             1.6427    -1.2271    -2.0006 N.pl3   
   7 C7            -1.2078    -0.5393    -1.3528 C.ar    
   8 N8             1.6572     3.1284     0.0026 N.pl3   
   9 C9             3.0289     3.3740     0.0833 C.ar    
  10 C10            3.5085     4.6748    -0.0243 C.ar    
  11 C11            3.9127     2.3179     0.2768 C.ar    
  12 C12            5.2674     2.5572     0.3569 C.ar    
  13 C13            5.7523     3.8615     0.2435 C.ar    
  14 C14            4.8621     4.9203     0.0545 C.ar    
  15 N15           -1.1870    -1.4527    -2.3119 N.ar    
  16 N16           -2.1988    -2.2009    -2.5744 N.ar    
  17 C17           -3.3307    -2.1001    -1.8961 C.ar    
  18 C18           -3.4379    -1.1779    -0.8512 C.ar    
  19 C19           -2.3542    -0.3726    -0.5717 C.ar    
  20 C20           -4.5158    -2.9230    -2.2318 C.ar    
  21 C21           -5.7521    -2.2939    -2.3864 C.ar    
  22 C22           -5.8386    -0.7972    -2.2642 C.3     
  23 C23           -5.7904    -0.3540    -0.8045 C.3     
  24 C24           -4.7025    -1.1091    -0.0456 C.3     
  25 C25           -4.4119    -4.3007    -2.3886 C.ar    
  26 C26           -5.5404    -5.0429    -2.6789 C.ar    
  27 C27           -6.7673    -4.4182    -2.8103 C.ar    
  28 C28           -6.8734    -3.0459    -2.6637 C.ar    
  29 C29            7.2042     4.1214     0.3294 C.2     
  30 C30            7.6634     5.3609     0.2215 C.2     
  31 C31            9.1443     5.6260     0.3091 C.3     
  32 N32            9.5824     6.3577    -0.8871 N.3     
  33 C33           10.9617     6.8408    -0.7332 C.3     
  34 C34           11.4066     7.5264    -2.0272 C.3     
  35 N35           10.4931     8.6373    -2.3290 N.3     
  36 C36            9.1138     8.1542    -2.4828 C.3     
  37 C37            8.6689     7.4686    -1.1888 C.3     
  38 C38           10.9311     9.3690    -3.5251 C.3     
  39 C39            9.8928    10.4355    -3.8793 C.3     
  40 C40           12.2776    10.0405    -3.2476 C.3     
  41 H41            2.5885    -1.3582    -2.1714 H       
  42 H42            1.0057    -1.9170    -2.2438 H       
  43 H43            1.0256     3.8028     0.2979 H       
  44 H44            2.8194     5.4935    -0.1701 H       
  45 H45            3.5370     1.3092     0.3648 H       
  46 H46            5.9532     1.7366     0.5075 H       
  47 H47            5.2344     5.9302    -0.0339 H       
  48 H48           -2.3927     0.3650     0.2163 H       
  49 H49           -5.0039    -0.3467    -2.8013 H       
  50 H50           -6.7733    -0.4565    -2.7096 H       
  51 H51           -5.5823     0.7151    -0.7607 H       
  52 H52           -6.7557    -0.5503    -0.3378 H       
  53 H53           -5.0489    -2.1210     0.1650 H       
  54 H54           -4.5007    -0.5972     0.8953 H       
  55 H55           -3.4537    -4.7881    -2.2843 H       
  56 H56           -5.4643    -6.1129    -2.8038 H       
  57 H57           -7.6476    -5.0044    -3.0288 H       
  58 H58           -7.8347    -2.5645    -2.7664 H       
  59 H59            7.8915     3.3021     0.4800 H       
  60 H60            6.9761     6.1802     0.0709 H       
  61 H61            9.3548     6.2221     1.1970 H       
  62 H62            9.6799     4.6788     0.3720 H       
  63 H63           11.0077     7.5534     0.0903 H       
  64 H64           11.6207     5.9984    -0.5229 H       
  65 H65           12.4191     7.9111    -1.9054 H       
  66 H66           11.3866     6.8067    -2.8456 H       
  67 H67            8.4548     8.9966    -2.6932 H       
  68 H68            9.0677     7.4416    -3.3063 H       
  69 H69            7.6563     7.0840    -1.3106 H       
  70 H70            8.6888     8.1883    -0.3705 H       
  71 H71           11.0366     8.6738    -4.3580 H       
  72 H72            9.7874    11.1307    -3.0464 H       
  73 H73           10.2178    10.9784    -4.7668 H       
  74 H74            8.9335     9.9571    -4.0770 H       
  75 H75           13.0173     9.2807    -2.9953 H       
  76 H76           12.6026    10.5834    -4.1351 H       
  77 H77           12.1722    10.7357    -2.4148 H       
@<TRIPOS>BOND
   1    1    2 1
   2    1    3 2
   3    2    7 1
   4    2    5 1
   5    3    4 1
   6    3    8 1
   7    4    5 2
   8    5    6 1
   9    6   41 1
  10    6   42 1
  11    7   15 ar
  12    7   19 ar
  13    8    9 1
  14    8   43 1
  15    9   10 ar
  16    9   11 ar
  17   10   14 ar
  18   10   44 1
  19   11   12 ar
  20   11   45 1
  21   12   13 ar
  22   12   46 1
  23   13   14 ar
  24   13   29 1
  25   14   47 1
  26   15   16 ar
  27   16   17 ar
  28   17   18 ar
  29   17   20 1
  30   18   19 ar
  31   18   24 1
  32   19   48 1
  33   20   21 ar
  34   20   25 ar
  35   21   22 1
  36   21   28 ar
  37   22   23 1
  38   22   49 1
  39   22   50 1
  40   23   24 1
  41   23   51 1
  42   23   52 1
  43   24   53 1
  44   24   54 1
  45   25   26 ar
  46   25   55 1
  47   26   27 ar
  48   26   56 1
  49   27   28 ar
  50   27   57 1
  51   28   58 1
  52   29   30 2
  53   29   59 1
  54   30   31 1
  55   30   60 1
  56   31   32 1
  57   31   61 1
  58   31   62 1
  59   32   33 1
  60   32   37 1
  61   33   34 1
  62   33   63 1
  63   33   64 1
  64   34   35 1
  65   34   65 1
  66   34   66 1
  67   35   36 1
  68   35   38 1
  69   36   37 1
  70   36   67 1
  71   36   68 1
  72   37   69 1
  73   37   70 1
  74   38   39 1
  75   38   40 1
  76   38   71 1
  77   39   72 1
  78   39   73 1
  79   39   74 1
  80   40   75 1
  81   40   76 1
  82   40   77 1

#	End of record

