#	Name: ASD04880037
#	Creating user name:	WinNT
#	Creation time:	15. 06. 2019 20:52

#	Modifying user name:	WinNT
#	Modification time:	15. 06. 2019 20:52

#	Program:	/corina/corina34_cracker 3.40 0067  02.08.2006

@<TRIPOS>MOLECULE
ASD04880037
  36   38    0    0    0
SMALL
NO_CHARGES


@<TRIPOS>ATOM
   1 C1             0.0100     1.4671     0.3586 C.2     
   2 C2             0.0253    -0.0066     0.2917 C.ar    
   3 C3             1.2435    -0.6918     0.2501 C.ar    
   4 C4             1.2580    -2.0562     0.1882 C.ar    
   5 C5             0.0540    -2.7681     0.1669 C.ar    
   6 C6            -1.1646    -2.0823     0.2090 C.ar    
   7 C7            -1.1784    -0.7182     0.2758 C.ar    
   8 O8             1.0558     2.0853     0.3775 O.2     
   9 O9            -1.1639     2.1278     0.3931 O.3     
  10 N10            0.8745    -6.3397    -0.0028 N.am    
  11 N11            1.1298    -4.9712     0.0569 N.2     
  12 C12            0.0693    -4.2394     0.0996 C.2     
  13 C13           -1.1563    -5.1243     0.0706 C.3     
  14 C14           -0.5815    -6.5529     0.0007 C.3     
  15 C15            1.8086    -7.3096    -0.0603 C.2     
  16 C16            3.2370    -6.9531    -0.1897 C.ar    
  17 C17            4.2170    -7.9437    -0.1057 C.ar    
  18 C18            5.5504    -7.6031    -0.2275 C.ar    
  19 C19            5.9143    -6.2815    -0.4322 C.ar    
  20 C20            4.9467    -5.2969    -0.5161 C.ar    
  21 C21            3.6114    -5.6252    -0.4022 C.ar    
  22 O22            1.4762    -8.4778    -0.0056 O.2     
  23 F23            6.5010    -8.5597    -0.1466 F       
  24 H24            2.1731    -0.1422     0.2666 H       
  25 H25            2.1989    -2.5853     0.1553 H       
  26 H26           -2.0943    -2.6316     0.1922 H       
  27 H27           -2.1191    -0.1889     0.3121 H       
  28 H28           -1.1234     3.0930     0.4367 H       
  29 H29           -1.7444    -4.9929     0.9789 H       
  30 H30           -1.7606    -4.9118    -0.8113 H       
  31 H31           -0.8986    -7.0495    -0.9163 H       
  32 H32           -0.8824    -7.1307     0.8747 H       
  33 H33            3.9336    -8.9735     0.0545 H       
  34 H34            6.9578    -6.0194    -0.5262 H       
  35 H35            5.2368    -4.2689    -0.6756 H       
  36 H36            2.8572    -4.8553    -0.4725 H       
@<TRIPOS>BOND
   1    1    2 1
   2    1    8 2
   3    1    9 1
   4    2    3 ar
   5    2    7 ar
   6    3    4 ar
   7    3   24 1
   8    4    5 ar
   9    4   25 1
  10    5    6 ar
  11    5   12 1
  12    6    7 ar
  13    6   26 1
  14    7   27 1
  15    9   28 1
  16   10   11 1
  17   10   14 1
  18   10   15 am
  19   11   12 2
  20   12   13 1
  21   13   14 1
  22   13   29 1
  23   13   30 1
  24   14   31 1
  25   14   32 1
  26   15   16 1
  27   15   22 2
  28   16   17 ar
  29   16   21 ar
  30   17   18 ar
  31   17   33 1
  32   18   19 ar
  33   18   23 1
  34   19   20 ar
  35   19   34 1
  36   20   21 ar
  37   20   35 1
  38   21   36 1

#	End of record

