#	Name: ASD01720189
#	Creating user name:	WinNT
#	Creation time:	15. 06. 2019 19:23

#	Modifying user name:	WinNT
#	Modification time:	15. 06. 2019 19:23

#	Program:	/corina/corina34_cracker 3.40 0067  02.08.2006

@<TRIPOS>MOLECULE
ASD01720189
  60   63    0    0    0
SMALL
NO_CHARGES


@<TRIPOS>ATOM
   1 C1            -0.1823     1.1364     0.3918 C.ar    
   2 N2            -0.1532    -0.1823     0.4067 N.ar    
   3 C3             0.9799    -0.8572     0.3693 C.ar    
   4 C4             2.1927    -0.2021     0.3125 C.ar    
   5 C5             2.2084     1.1955     0.2949 C.ar    
   6 C6             0.9852     1.8700     0.3359 C.ar    
   7 C7             3.4889     1.9426     0.2347 C.ar    
   8 C8             3.6754     2.9572    -0.7079 C.ar    
   9 C9             4.8885     3.6244    -0.7231 C.ar    
  10 C10            5.8675     3.2687     0.1863 C.ar    
  11 N11            5.6625     2.3059     1.0645 N.ar    
  12 C12            4.5230     1.6477     1.1210 C.ar    
  13 C13            7.1895     3.9920     0.1737 C.3     
  14 C14            8.1145     3.3457    -0.8596 C.3     
  15 N15            7.8050     3.9076     1.5005 N.pl3   
  16 C16            8.7118     4.8716     1.9051 C.ar    
  17 N17            9.2584     4.7795     3.1079 N.ar    
  18 C18           10.1323     5.6889     3.5258 C.ar    
  19 C19           10.4679     6.7453     2.6786 C.ar    
  20 C20            9.8748     6.8045     1.4315 C.ar    
  21 N21            9.0157     5.8607     1.0775 N.ar    
  22 N22           10.7038     5.5894     4.7892 N.am    
  23 C23           11.5809     6.4535     5.3180 C.2     
  24 O24           11.9804     6.1311     6.5532 O.3     
  25 O25           11.9771     7.4397     4.7294 O.2     
  26 C26           11.3238     4.8990     6.9701 C.3     
  27 C27           10.4394     4.5218     5.7659 C.3     
  28 C28           10.8584     3.1655     5.1952 C.3     
  29 C29           12.3330     3.2161     4.7904 C.3     
  30 C30           10.6577     2.0817     6.2563 C.3     
  31 C31            2.5841     3.3158    -1.6833 C.3     
  32 C32            0.9490    -2.3638     0.3894 C.3     
  33 F33           -0.3779    -2.8037     0.3335 F       
  34 F34            1.6515    -2.8594    -0.7142 F       
  35 F35            1.5445    -2.8267     1.5676 F       
  36 H36           -1.1327     1.6486     0.4192 H       
  37 H37            3.1164    -0.7609     0.2825 H       
  38 H38            0.9540     2.9495     0.3237 H       
  39 H39            5.0683     4.4138    -1.4378 H       
  40 H40            4.3925     0.8657     1.8545 H       
  41 H41            7.0289     5.0382    -0.0865 H       
  42 H42            7.6566     3.4084    -1.8468 H       
  43 H43            9.0708     3.8688    -0.8687 H       
  44 H44            8.2752     2.2995    -0.5994 H       
  45 H45            7.5769     3.1762     2.0953 H       
  46 H46           11.1748     7.5000     2.9903 H       
  47 H47           10.1124     7.6093     0.7517 H       
  48 H48           12.0611     4.1204     7.1657 H       
  49 H49           10.7080     5.0738     7.8523 H       
  50 H50            9.3877     4.5095     6.0523 H       
  51 H51           10.2494     2.9353     4.3210 H       
  52 H52           12.9421     3.4463     5.6646 H       
  53 H53           12.6315     2.2498     4.3839 H       
  54 H54           12.4760     3.9882     4.0345 H       
  55 H55           11.3382     2.2583     7.0893 H       
  56 H56            9.6289     2.1107     6.6152 H       
  57 H57           10.8630     1.1040     5.8204 H       
  58 H58            1.9505     4.0903    -1.2511 H       
  59 H59            3.0294     3.6844    -2.6074 H       
  60 H60            1.9830     2.4320    -1.8970 H       
@<TRIPOS>BOND
   1    1    2 ar
   2    1    6 ar
   3    1   36 1
   4    2    3 ar
   5    3   32 1
   6    3    4 ar
   7    4    5 ar
   8    4   37 1
   9    5    6 ar
  10    5    7 1
  11    6   38 1
  12    7    8 ar
  13    7   12 ar
  14    8    9 ar
  15    8   31 1
  16    9   10 ar
  17    9   39 1
  18   10   11 ar
  19   10   13 1
  20   11   12 ar
  21   12   40 1
  22   13   14 1
  23   13   15 1
  24   13   41 1
  25   14   42 1
  26   14   43 1
  27   14   44 1
  28   15   16 1
  29   15   45 1
  30   16   17 ar
  31   16   21 ar
  32   17   18 ar
  33   18   19 ar
  34   18   22 1
  35   19   20 ar
  36   19   46 1
  37   20   21 ar
  38   20   47 1
  39   22   23 am
  40   22   27 1
  41   23   24 1
  42   23   25 2
  43   24   26 1
  44   26   27 1
  45   26   48 1
  46   26   49 1
  47   27   28 1
  48   27   50 1
  49   28   29 1
  50   28   30 1
  51   28   51 1
  52   29   52 1
  53   29   53 1
  54   29   54 1
  55   30   55 1
  56   30   56 1
  57   30   57 1
  58   31   58 1
  59   31   59 1
  60   31   60 1
  61   32   33 1
  62   32   34 1
  63   32   35 1

#	End of record

