#	Name: ASD01200290
#	Creating user name:	WinNT
#	Creation time:	15. 06. 2019 19:08

#	Modifying user name:	WinNT
#	Modification time:	15. 06. 2019 19:08

#	Program:	/corina/corina34_cracker 3.40 0067  02.08.2006

@<TRIPOS>MOLECULE
ASD01200290
  62   64    0    0    0
SMALL
NO_CHARGES


@<TRIPOS>ATOM
   1 C1             0.0650     1.0533     0.1350 C.ar    
   2 C2            -0.0724    -0.3272     0.1096 C.ar    
   3 C3            -1.3342    -0.9020     0.0690 C.ar    
   4 C4            -2.4631    -0.0993     0.0542 C.ar    
   5 C5            -2.3296     1.2893     0.0801 C.ar    
   6 C6            -1.0583     1.8633     0.1258 C.ar    
   7 O7             1.3036     1.6113     0.1748 O.3     
   8 C8             1.3769     3.0354     0.0814 C.3     
   9 C9             2.7446     3.4405    -0.4720 C.3     
  10 O10            3.7637     3.0697     0.4586 O.3     
  11 C11            5.0868     3.4052     0.0357 C.3     
  12 C12            1.1869     3.6480     1.4704 C.3     
  13 O13           -1.4631    -2.2547     0.0433 O.3     
  14 C14           -0.2615    -3.0188    -0.0760 C.3     
  15 C15           -0.5395    -4.2823    -0.8928 C.3     
  16 C16           -0.9092    -3.8980    -2.3023 C.ar    
  17 C17            0.0748    -3.7713    -3.2649 C.ar    
  18 C18           -0.2643    -3.4188    -4.5578 C.ar    
  19 C19           -1.5875    -3.1935    -4.8883 C.ar    
  20 C20           -2.5716    -3.3211    -3.9259 C.ar    
  21 C21           -2.2330    -3.6779    -2.6340 C.ar    
  22 C22           -3.5313     2.1499     0.0644 C.2     
  23 N23           -3.4001     3.4910     0.0895 N.am    
  24 O24           -4.6377     1.6481     0.0288 O.2     
  25 C25           -4.5267     4.2972     0.1824 C.ar    
  26 N26           -5.7307     3.7436     0.1492 N.ar    
  27 C27           -4.3755     5.6757     0.3149 C.ar    
  28 C28           -6.8268     4.4680     0.2339 C.ar    
  29 C29           -6.7508     5.8562     0.3623 C.ar    
  30 C30           -5.4884     6.4679     0.4063 C.ar    
  31 C31           -7.9788     6.6672     0.4562 C.2     
  32 O32           -9.1857     6.0692     0.4184 O.3     
  33 O33           -7.9024     7.8747     0.5677 O.2     
  34 C34            0.2340    -3.4110     1.3174 C.3     
  35 H35            0.8056    -0.9560     0.1210 H       
  36 H36           -3.4451    -0.5476     0.0222 H       
  37 H37           -0.9505     2.9377     0.1464 H       
  38 H38            0.5938     3.3966    -0.5853 H       
  39 H39            2.9173     2.9332    -1.4212 H       
  40 H40            2.7689     4.5191    -0.6268 H       
  41 H41            5.1598     4.4832    -0.1085 H       
  42 H42            5.8019     3.0912     0.7962 H       
  43 H43            5.3081     2.8972    -0.9029 H       
  44 H44            1.2428     4.7343     1.3992 H       
  45 H45            0.2125     3.3595     1.8646 H       
  46 H46            1.9700     3.2869     2.1370 H       
  47 H47            0.5002    -2.4220    -0.5778 H       
  48 H48            0.3528    -4.9081    -0.9090 H       
  49 H49           -1.3624    -4.8345    -0.4391 H       
  50 H50            1.1087    -3.9473    -3.0067 H       
  51 H51            0.5046    -3.3191    -5.3096 H       
  52 H52           -1.8524    -2.9174    -5.8982 H       
  53 H53           -3.6054    -3.1448    -4.1840 H       
  54 H54           -3.0018    -3.7776    -1.8822 H       
  55 H55           -2.5186     3.8931     0.0427 H       
  56 H56           -3.3895     6.1153     0.3456 H       
  57 H57           -7.7921     3.9847     0.2036 H       
  58 H58           -5.3970     7.5395     0.5053 H       
  59 H59           -9.9619     6.6422     0.4834 H       
  60 H60            0.4320    -2.5108     1.8993 H       
  61 H61           -0.5277    -4.0077     1.8192 H       
  62 H62            1.1506    -3.9938     1.2264 H       
@<TRIPOS>BOND
   1    1    2 ar
   2    1    7 1
   3    1    6 ar
   4    2    3 ar
   5    2   35 1
   6    3    4 ar
   7    3   13 1
   8    4    5 ar
   9    4   36 1
  10    5    6 ar
  11    5   22 1
  12    6   37 1
  13    7    8 1
  14    8    9 1
  15    8   12 1
  16    8   38 1
  17    9   10 1
  18    9   39 1
  19    9   40 1
  20   10   11 1
  21   11   41 1
  22   11   42 1
  23   11   43 1
  24   12   44 1
  25   12   45 1
  26   12   46 1
  27   13   14 1
  28   14   15 1
  29   14   34 1
  30   14   47 1
  31   15   16 1
  32   15   48 1
  33   15   49 1
  34   16   17 ar
  35   16   21 ar
  36   17   18 ar
  37   17   50 1
  38   18   19 ar
  39   18   51 1
  40   19   20 ar
  41   19   52 1
  42   20   21 ar
  43   20   53 1
  44   21   54 1
  45   22   23 am
  46   22   24 2
  47   23   25 1
  48   23   55 1
  49   25   26 ar
  50   25   27 ar
  51   26   28 ar
  52   27   30 ar
  53   27   56 1
  54   28   29 ar
  55   28   57 1
  56   29   30 ar
  57   29   31 1
  58   30   58 1
  59   31   32 1
  60   31   33 2
  61   32   59 1
  62   34   60 1
  63   34   61 1
  64   34   62 1

#	End of record

