#	Name: ASD05720084
#	Creating user name:	WinNT
#	Creation time:	15. 06. 2019 21:01

#	Modifying user name:	WinNT
#	Modification time:	15. 06. 2019 21:01

#	Program:	/corina/corina34_cracker 3.40 0067  02.08.2006

@<TRIPOS>MOLECULE
ASD05720084
  32   35    0    0    0
SMALL
NO_CHARGES


@<TRIPOS>ATOM
   1 O1            -0.0161     1.3334     0.0094 O.3     
   2 C2             0.0021    -0.0041     0.0020 C.2     
   3 N3             1.2348    -0.5293    -0.0126 N.am    
   4 C4             2.2183     0.5645    -0.0161 C.3     
   5 C5             1.3508     1.8379    -0.0010 C.3     
   6 O6            -1.0069    -0.6808     0.0087 O.2     
   7 S7             2.4585     0.2659    -2.8440 S.3     
   8 C8             3.0621     0.5136    -1.2636 C.2     
   9 N9             4.3447     0.6507    -1.2937 N.2     
  10 C10            4.9291     0.5792    -2.4727 C.2     
  11 C11            4.0929     0.3703    -3.4940 C.2     
  12 C12            6.4183     0.7220    -2.6545 C.3     
  13 C13            3.0998    -3.5861    -0.0446 C.2     
  14 N14            2.7924    -2.2814    -0.0357 N.2     
  15 C15            1.5350    -1.8858    -0.0220 C.2     
  16 C16            0.4938    -2.8374    -0.0165 C.2     
  17 C17            0.7983    -4.1544    -0.0253 C.2     
  18 N18            2.1111    -4.5364    -0.0395 N.pl3   
  19 N19            2.7293    -5.7921    -0.0510 N.2     
  20 C20            4.0323    -5.6237    -0.0626 C.2     
  21 C21            4.3115    -4.2644    -0.0648 C.2     
  22 Br22           6.0310    -3.4778    -0.0879 Br      
  23 H23            2.8457     0.5180     0.8740 H       
  24 H24            1.5314     2.4339    -0.8956 H       
  25 H25            1.5485     2.4243     0.8964 H       
  26 H26            4.3699     0.2811    -4.5340 H       
  27 H27            6.8889    -0.2585    -2.5815 H       
  28 H28            6.6251     1.1523    -3.6344 H       
  29 H29            6.8180     1.3755    -1.8790 H       
  30 H30           -0.5374    -2.5166    -0.0049 H       
  31 H31            0.0136    -4.8964    -0.0208 H       
  32 H32            4.7671    -6.4151    -0.0732 H       
@<TRIPOS>BOND
   1    1    2 1
   2    1    5 1
   3    2    3 am
   4    2    6 2
   5    3    4 1
   6    3   15 1
   7    4    5 1
   8    4    8 1
   9    4   23 1
  10    5   24 1
  11    5   25 1
  12    7    8 1
  13    7   11 1
  14    8    9 2
  15    9   10 1
  16   10   11 2
  17   10   12 1
  18   11   26 1
  19   12   27 1
  20   12   28 1
  21   12   29 1
  22   13   14 1
  23   13   18 1
  24   13   21 2
  25   14   15 2
  26   15   16 1
  27   16   17 2
  28   16   30 1
  29   17   18 1
  30   17   31 1
  31   18   19 1
  32   19   20 2
  33   20   21 1
  34   20   32 1
  35   21   22 1

#	End of record

