#	Name: ASD02039120
#	Creating user name:	WinNT
#	Creation time:	15. 06. 2019 20:17

#	Modifying user name:	WinNT
#	Modification time:	15. 06. 2019 20:17

#	Program:	/corina/corina34_cracker 3.40 0067  02.08.2006

@<TRIPOS>MOLECULE
ASD02039120
  42   45    0    0    0
SMALL
NO_CHARGES


@<TRIPOS>ATOM
   1 N1             0.0234     1.2846    -0.3606 N.2     
   2 N2             0.0398    -0.0019    -0.3618 N.2     
   3 C3             1.2244     1.7332    -0.0875 C.2     
   4 O4             2.0204     0.6620     0.0884 O.3     
   5 C5             1.2410    -0.4221    -0.0919 C.2     
   6 N6             1.6034     3.0605     0.0028 N.pl3   
   7 C7             0.6393     4.0715    -0.0882 C.ar    
   8 C8             1.6807    -1.8604     0.0029 C.3     
   9 C9             2.1412    -2.3351    -1.3513 C.ar    
  10 C10           -0.6626     3.8294     0.3296 C.ar    
  11 C11            0.9859     5.3188    -0.5912 C.ar    
  12 C12            0.0347     6.3160    -0.6805 C.ar    
  13 C13           -1.2669     6.0727    -0.2680 C.ar    
  14 O14           -2.2029     7.0556    -0.3563 O.3     
  15 C15            3.4526    -2.1942    -1.7082 C.ar    
  16 C16            1.2307    -2.9167    -2.2225 C.ar    
  17 C17            1.6298    -3.3581    -3.4659 C.ar    
  18 C18            2.9583    -3.2200    -3.8534 C.ar    
  19 C19            3.8802    -2.6346    -2.9648 C.ar    
  20 N20            3.3851    -3.6521    -5.0911 N.am    
  21 C21            4.6696    -3.5183    -5.4652 C.2     
  22 C22            5.6319    -2.9336    -4.6143 C.2     
  23 C23            5.2765    -2.4937    -3.3819 C.2     
  24 O24            5.0117    -3.9124    -6.5667 O.2     
  25 C25           -1.6136     4.8281     0.2393 C.ar    
  26 F26           -1.2943     8.1341    -2.1848 F       
  27 F27           -2.8557     9.2018    -0.9036 F       
  28 C28           -1.7754     8.3131    -0.8833 C.3     
  29 F29           -0.7576     8.8347    -0.0776 F       
  30 Cl30          -3.2432     4.5242     0.7548 Cl      
  31 H31            2.5372     3.2907     0.1291 H       
  32 H32            2.5014    -1.9432     0.7154 H       
  33 H33            0.8450    -2.4745     0.3383 H       
  34 H34           -0.9320     2.8610     0.7247 H       
  35 H35            1.9994     5.5090    -0.9122 H       
  36 H36            0.3046     7.2860    -1.0713 H       
  37 H37            4.1558    -1.7443    -1.0231 H       
  38 H38            0.1987    -3.0250    -1.9229 H       
  39 H39            0.9137    -3.8096    -4.1365 H       
  40 H40            2.7495    -4.0587    -5.7008 H       
  41 H41            6.6561    -2.8409    -4.9440 H       
  42 H42            6.0064    -2.0450    -2.7243 H       
@<TRIPOS>BOND
   1    1    2 1
   2    1    3 2
   3    2    5 2
   4    3    4 1
   5    3    6 1
   6    4    5 1
   7    5    8 1
   8    6    7 1
   9    6   31 1
  10    7   10 ar
  11    7   11 ar
  12    8    9 1
  13    8   32 1
  14    8   33 1
  15    9   15 ar
  16    9   16 ar
  17   10   25 ar
  18   10   34 1
  19   11   12 ar
  20   11   35 1
  21   12   13 ar
  22   12   36 1
  23   13   25 ar
  24   13   14 1
  25   14   28 1
  26   15   19 ar
  27   15   37 1
  28   16   17 ar
  29   16   38 1
  30   17   18 ar
  31   17   39 1
  32   18   19 ar
  33   18   20 1
  34   19   23 1
  35   20   21 am
  36   20   40 1
  37   21   22 1
  38   21   24 2
  39   22   23 2
  40   22   41 1
  41   23   42 1
  42   25   30 1
  43   26   28 1
  44   27   28 1
  45   28   29 1

#	End of record

