#	Name: ASD04910083
#	Creating user name:	WinNT
#	Creation time:	15. 06. 2019 20:55

#	Modifying user name:	WinNT
#	Modification time:	15. 06. 2019 20:55

#	Program:	/corina/corina34_cracker 3.40 0067  02.08.2006

@<TRIPOS>MOLECULE
ASD04910083
  29   30    0    0    0
SMALL
NO_CHARGES


@<TRIPOS>ATOM
   1 C1             0.0476     1.4843     0.0631 C.ar    
   2 C2            -0.0565     0.1060    -0.0567 C.ar    
   3 C3             1.0838    -0.6693    -0.1252 C.ar    
   4 C4             2.3349    -0.0695    -0.0744 C.ar    
   5 C5             2.4386     1.3097     0.0455 C.ar    
   6 C6             1.2976     2.0842     0.1139 C.ar    
   7 O7            -1.0755     2.2477     0.1249 O.3     
   8 N8             3.4939    -0.8569    -0.1435 N.pl3   
   9 N9             3.8108    -1.9331     0.6955 N.2     
  10 C10            4.9688    -2.4158     0.3222 C.2     
  11 C11            5.4266    -1.6640    -0.7652 C.2     
  12 C12            4.5000    -0.7152    -1.0354 C.2     
  13 C13            6.7204    -1.8767    -1.5081 C.3     
  14 F14            7.4106    -2.9548    -0.9435 F       
  15 F15            6.4467    -2.1507    -2.8524 F       
  16 F16            7.5051    -0.7220    -1.4179 F       
  17 C17            3.7962     1.9614     0.1012 C.3     
  18 C18            0.9706    -2.1665    -0.2548 C.3     
  19 H19           -1.0298    -0.3606    -0.0959 H       
  20 H20            1.3782     3.1572     0.2071 H       
  21 H21           -1.4037     2.3924     1.0229 H       
  22 H22            5.4826    -3.2505     0.7757 H       
  23 H23            4.5554     0.0237    -1.8211 H       
  24 H24            4.1609     2.1286    -0.9123 H       
  25 H25            3.7200     2.9160     0.6220 H       
  26 H26            4.4898     1.3111     0.6343 H       
  27 H27            0.8951    -2.4353    -1.3084 H       
  28 H28            1.8539    -2.6365     0.1777 H       
  29 H29            0.0809    -2.5106     0.2726 H       
@<TRIPOS>BOND
   1    1    2 ar
   2    1    6 ar
   3    1    7 1
   4    2    3 ar
   5    2   19 1
   6    3    4 ar
   7    3   18 1
   8    4    5 ar
   9    4    8 1
  10    5    6 ar
  11    5   17 1
  12    6   20 1
  13    7   21 1
  14    8    9 1
  15    8   12 1
  16    9   10 2
  17   10   11 1
  18   10   22 1
  19   11   12 2
  20   11   13 1
  21   12   23 1
  22   13   14 1
  23   13   15 1
  24   13   16 1
  25   17   24 1
  26   17   25 1
  27   17   26 1
  28   18   27 1
  29   18   28 1
  30   18   29 1

#	End of record

