#	Name: ASD00450056
#	Creating user name:	WinNT
#	Creation time:	15. 06. 2019 18:36

#	Modifying user name:	WinNT
#	Modification time:	15. 06. 2019 18:36

#	Program:	/corina/corina34_cracker 3.40 0067  02.08.2006

@<TRIPOS>MOLECULE
ASD00450056
  49   51    0    0    0
SMALL
NO_CHARGES


@<TRIPOS>ATOM
   1 C1             0.0600     1.4967     0.0328 C.ar    
   2 C2            -0.1760     0.1225     0.1925 C.ar    
   3 C3             0.7719    -0.6703     0.8167 C.ar    
   4 C4             1.9513    -0.1122     1.2836 C.ar    
   5 C5             2.1951     1.2423     1.1322 C.ar    
   6 C6             1.2591     2.0541     0.5094 C.ar    
   7 C7            -0.9375     2.3463    -0.6341 C.2     
   8 O8            -1.8115     2.8850     0.0186 O.2     
   9 N9            -0.8837     2.5284    -1.9684 N.am    
  10 N10            1.5054     3.4129     0.3573 N.pl3   
  11 C11            2.4005     4.0618     1.2147 C.ar    
  12 C12            3.0173     5.2425     0.8145 C.ar    
  13 C13            2.6708     3.5317     2.4691 C.ar    
  14 C14            3.5547     4.1747     3.3138 C.ar    
  15 C15            4.1711     5.3460     2.9120 C.ar    
  16 C16            3.9011     5.8810     1.6651 C.ar    
  17 F17            2.8694    -0.8952     1.8912 F       
  18 F18            2.7537     5.7645    -0.4034 F       
  19 I19            5.5101     6.3168     4.1979 I       
  20 O20           -1.3294    -0.4272    -0.2628 O.3     
  21 C21           -1.4705    -1.7760    -0.1778 C.ar    
  22 C22           -1.8455    -2.3599     1.0224 C.ar    
  23 C23           -1.9886    -3.7379     1.1057 C.ar    
  24 C24           -1.2446    -2.5696    -1.2939 C.ar    
  25 C25           -1.3880    -3.9416    -1.2092 C.ar    
  26 N26           -2.3667    -4.3300     2.3129 N.am    
  27 C27           -1.7555    -4.5278    -0.0137 C.ar    
  28 S28           -1.7477    -5.8050     2.7414 S.o2    
  29 N29           -0.1008    -5.6450     2.8074 N.am    
  30 O30           -2.1807    -6.0506     4.0723 O.2     
  31 O31           -2.0224    -6.6849     1.6599 O.2     
  32 C32           -2.0969    -1.5001     2.2343 C.3     
  33 H33            0.5913    -1.7279     0.9406 H       
  34 H34            3.1171     1.6678     1.5001 H       
  35 H35           -0.1868     2.0989    -2.4888 H       
  36 H36           -1.5418     3.0889    -2.4083 H       
  37 H37            1.0568     3.9117    -0.3433 H       
  38 H38            2.1901     2.6174     2.7845 H       
  39 H39            3.7646     3.7624     4.2897 H       
  40 H40            4.3808     6.7978     1.3558 H       
  41 H41           -0.9568    -2.1142    -2.2300 H       
  42 H42           -1.2120    -4.5566    -2.0793 H       
  43 H43           -2.9919    -3.8772     2.9003 H       
  44 H44           -1.8665    -5.6002     0.0498 H       
  45 H45            0.4154    -6.1918     3.4202 H       
  46 H46            0.3477    -5.0046     2.2333 H       
  47 H47           -3.1461    -1.2060     2.2597 H       
  48 H48           -1.8554    -2.0633     3.1357 H       
  49 H49           -1.4709    -0.6092     2.1838 H       
@<TRIPOS>BOND
   1    1    2 ar
   2    1    6 ar
   3    1    7 1
   4    2    3 ar
   5    2   20 1
   6    3    4 ar
   7    3   33 1
   8    4    5 ar
   9    4   17 1
  10    5    6 ar
  11    5   34 1
  12    6   10 1
  13    7    8 2
  14    7    9 am
  15    9   35 1
  16    9   36 1
  17   10   11 1
  18   10   37 1
  19   11   13 ar
  20   11   12 ar
  21   12   16 ar
  22   12   18 1
  23   13   14 ar
  24   13   38 1
  25   14   15 ar
  26   14   39 1
  27   15   16 ar
  28   15   19 1
  29   16   40 1
  30   20   21 1
  31   21   22 ar
  32   21   24 ar
  33   22   23 ar
  34   22   32 1
  35   23   27 ar
  36   23   26 1
  37   24   25 ar
  38   24   41 1
  39   25   27 ar
  40   25   42 1
  41   26   28 am
  42   26   43 1
  43   27   44 1
  44   28   29 am
  45   28   30 2
  46   28   31 2
  47   29   45 1
  48   29   46 1
  49   32   47 1
  50   32   48 1
  51   32   49 1

#	End of record

