#	Name: ASD01815601
#	Creating user name:	WinNT
#	Creation time:	15. 06. 2019 19:33

#	Modifying user name:	WinNT
#	Modification time:	15. 06. 2019 19:33

#	Program:	/corina/corina34_cracker 3.40 0067  02.08.2006

@<TRIPOS>MOLECULE
ASD01815601
  34   36    0    0    0
SMALL
NO_CHARGES


@<TRIPOS>ATOM
   1 C1             0.1039     1.4767     0.3860 C.ar    
   2 C2             0.0848     0.0904     0.3777 C.ar    
   3 C3             1.2533    -0.6304     0.2376 C.ar    
   4 C4             2.4704     0.0349     0.1019 C.ar    
   5 C5             2.4881     1.4401     0.1100 C.ar    
   6 C6             1.2976     2.1572     0.2531 C.ar    
   7 N7             3.6446    -0.6745    -0.0383 N.pl3   
   8 C8             4.8382    -0.0824    -0.1714 C.2     
   9 C9             4.9813     1.2905    -0.1780 C.2     
  10 C10            3.7816     2.1314    -0.0344 C.2     
  11 O11            3.8550     3.3478    -0.0340 O.2     
  12 C12            6.3092     1.9024    -0.3259 C.2     
  13 O13            7.2932     1.1984    -0.4438 O.2     
  14 O14            6.4361     3.2445    -0.3309 O.3     
  15 C15            3.5837    -2.1382    -0.0413 C.3     
  16 C16            3.4395    -2.6321    -1.4578 C.ar    
  17 C17            4.5589    -2.7766    -2.2561 C.ar    
  18 C18            4.4280    -3.2298    -3.5551 C.ar    
  19 C19            3.1751    -3.5392    -4.0568 C.ar    
  20 C20            2.0548    -3.3941    -3.2563 C.ar    
  21 C21            2.1887    -2.9457    -1.9560 C.ar    
  22 F22            1.3144     3.5081     0.2605 F       
  23 F23            1.2174    -1.9809     0.2324 F       
  24 F24            3.0459    -3.9820    -5.3267 F       
  25 H25           -0.8195     2.0265     0.4924 H       
  26 H26           -0.8550    -0.4313     0.4824 H       
  27 H27            5.7182    -0.6995    -0.2767 H       
  28 H28            7.3296     3.6006    -0.4309 H       
  29 H29            4.4990    -2.5409     0.3925 H       
  30 H30            2.7273    -2.4674     0.5472 H       
  31 H31            5.5360    -2.5349    -1.8646 H       
  32 H32            5.3025    -3.3423    -4.1787 H       
  33 H33            1.0770    -3.6351    -3.6466 H       
  34 H34            1.3149    -2.8324    -1.3314 H       
@<TRIPOS>BOND
   1    1    2 ar
   2    1    6 ar
   3    1   25 1
   4    2    3 ar
   5    2   26 1
   6    3    4 ar
   7    3   23 1
   8    4    5 ar
   9    4    7 1
  10    5    6 ar
  11    5   10 1
  12    6   22 1
  13    7    8 1
  14    7   15 1
  15    8    9 2
  16    8   27 1
  17    9   10 1
  18    9   12 1
  19   10   11 2
  20   12   13 2
  21   12   14 1
  22   14   28 1
  23   15   16 1
  24   15   29 1
  25   15   30 1
  26   16   17 ar
  27   16   21 ar
  28   17   18 ar
  29   17   31 1
  30   18   19 ar
  31   18   32 1
  32   19   20 ar
  33   19   24 1
  34   20   21 ar
  35   20   33 1
  36   21   34 1

#	End of record

