#	Name: ASD01820134
#	Creating user name:	WinNT
#	Creation time:	15. 06. 2019 19:36

#	Modifying user name:	WinNT
#	Modification time:	15. 06. 2019 19:36

#	Program:	/corina/corina34_cracker 3.40 0067  02.08.2006

@<TRIPOS>MOLECULE
ASD01820134
 100  111    0    0    0
SMALL
NO_CHARGES


@<TRIPOS>ATOM
   1 N1            -0.2752     1.7091     1.0050 N.pl3   
   2 C2            -0.2483     0.3714     0.6833 C.2     
   3 C3             0.8478    -0.3381     0.4232 C.2     
   4 C4             2.2084     0.1942     0.4123 C.3     
   5 N5             2.6916     1.2188    -0.5240 N.3     
   6 C6             1.6742     1.9889    -1.2362 C.3     
   7 C7             1.0053     3.1067    -0.3941 C.3     
   8 C8             0.9333     2.5749     1.0528 C.3     
   9 C9             3.3612    -0.8012     0.4765 C.3     
  10 C10            4.0798    -0.6055    -0.8194 C.ar    
  11 C11            3.5823     0.5759    -1.4014 C.ar    
  12 C12            5.0679    -1.3797    -1.3920 C.ar    
  13 C13            5.5430    -1.0004    -2.6384 C.ar    
  14 C14            5.0095     0.0987    -3.2742 C.ar    
  15 C15            4.0230     0.8877    -2.6864 C.ar    
  16 C16            1.8818     4.3581    -0.4004 C.3     
  17 C17            1.2998     5.4515     0.4897 C.3     
  18 C18            1.2687     4.9629     1.9167 C.3     
  19 C19            0.5328     3.6424     2.0737 C.3     
  20 C20           -0.9463     3.6787     2.0097 C.ar    
  21 C21           -1.3575     2.5177     1.3299 C.ar    
  22 C22           -1.8609     4.6043     2.4772 C.ar    
  23 C23           -3.2042     4.3637     2.2245 C.ar    
  24 C24           -3.6103     3.2415     1.5366 C.ar    
  25 C25           -2.7143     2.2954     1.0761 C.ar    
  26 C26            1.0102     3.1677     3.4745 C.3     
  27 C27            3.2188     3.9025     0.1700 C.2     
  28 N28            2.6133     4.7125     2.4668 N.4     
  29 C29            3.5035     3.9260     1.6199 C.3     
  30 C30            2.3596     3.8840     3.6867 C.3     
  31 H31            0.7700     5.7120     2.5352 H       
  32 H32            1.8476     2.0939     1.3733 H       
  33 H33            0.0008     3.3407    -0.7903 H       
  34 H34            1.9553     4.7606    -1.4054 H       
  35 O35            2.2932     2.6180    -2.4010 O.3     
  36 C36            3.9949     3.4550    -0.7748 C.2     
  37 C37            3.3758     3.4719    -2.1334 C.3     
  38 H38            0.8911     1.3018    -1.5859 H       
  39 H39            2.3168     0.6467     1.4037 H       
  40 O40           -2.1522    -4.7993     1.0288 O.3     
  41 C41            2.9175    -2.2606     0.5893 C.3     
  42 C42            0.5277    -1.8164     0.1981 C.3     
  43 C43            1.7636    -2.5368    -0.3454 C.3     
  44 C44            0.3378    -2.4062     1.5957 C.2     
  45 C45            1.4581    -2.1411     2.5683 C.3     
  46 N46            2.7566    -2.5239     2.0089 N.4     
  47 C47            4.2443    -0.5990     1.7070 C.3     
  48 C48            3.7893    -1.6966     2.6968 C.3     
  49 H49            3.7580    -2.8651     0.2432 H       
  50 H50           -0.3441    -1.9561    -0.4329 H       
  51 C51           -0.7285    -3.0908     1.9249 C.2     
  52 C52           -1.7562    -3.4346     0.8777 C.3     
  53 C53            3.2571     5.9774     2.8483 C.3     
  54 C54            4.6280     5.6948     3.4068 C.2     
  55 C55            5.6792     6.2819     2.8908 C.2     
  56 C56            3.0135    -3.9470     2.2829 C.3     
  57 C57            2.8451    -4.2133     3.7565 C.2     
  58 C58            2.0185    -5.1445     4.1636 C.2     
  59 H59           -1.2016    -0.1474     0.6453 H       
  60 H60            5.4576    -2.2523    -0.8857 H       
  61 H61            6.3413    -1.5572    -3.1029 H       
  62 H62            5.3623     0.3554    -4.2633 H       
  63 H63            3.6016     1.6738    -3.2918 H       
  64 H64            1.9117     6.3472     0.4084 H       
  65 H65            0.2837     5.6755     0.1602 H       
  66 H66           -1.5478     5.4827     3.0215 H       
  67 H67           -3.9440     5.0705     2.5709 H       
  68 H68           -4.6640     3.0974     1.3497 H       
  69 H69           -3.0462     1.4164     0.5436 H       
  70 H70            0.2987     3.4715     4.2425 H       
  71 H71            1.1473     2.0875     3.4895 H       
  72 H72            3.4911     2.8954     1.9716 H       
  73 H73            4.5165     4.3077     1.7449 H       
  74 H74            2.3054     4.5245     4.5666 H       
  75 H75            3.1553     3.1502     3.8102 H       
  76 H76            5.0128     3.1056    -0.5791 H       
  77 H77            4.1848     3.1989    -2.8431 H       
  78 H78            3.1384     4.4938    -2.4278 H       
  79 H79           -2.8137    -5.0904     0.3863 H       
  80 H80            1.9991    -2.1651    -1.3420 H       
  81 H81            1.5751    -3.6091    -0.3927 H       
  82 H82            1.4732    -1.0799     2.8186 H       
  83 H83            1.2816    -2.7166     3.4788 H       
  84 H84            5.2969    -0.7394     1.4558 H       
  85 H85            4.0913     0.3888     2.1405 H       
  86 H86            3.3710    -1.2407     3.5923 H       
  87 H87            4.6447    -2.3200     2.9624 H       
  88 H88           -0.8716    -3.4092     2.9469 H       
  89 H89           -1.3276    -3.2884    -0.1138 H       
  90 H90           -2.6261    -2.7886     0.9964 H       
  91 H91            3.3471     6.6182     1.9712 H       
  92 H92            2.6530     6.4790     3.6043 H       
  93 H93            4.7437     5.0084     4.2325 H       
  94 H94            6.6617     6.0794     3.2910 H       
  95 H95            5.5635     6.9683     2.0651 H       
  96 H96            2.3081    -4.5584     1.7202 H       
  97 H97            4.0311    -4.1969     1.9825 H       
  98 H98            3.4059    -3.6364     4.4771 H       
  99 H99            1.8978    -5.3353     5.2197 H       
 100 H100           1.4577    -5.7214     3.4431 H       
@<TRIPOS>BOND
   1    1    2 1
   2    1    8 1
   3    1   21 1
   4    2    3 2
   5    2   59 1
   6    3    4 1
   7    3   42 1
   8    4    5 1
   9    4    9 1
  10    4   39 1
  11    5    6 1
  12    5   11 1
  13    6    7 1
  14    6   35 1
  15    6   38 1
  16    7    8 1
  17    7   33 1
  18    7   16 1
  19    8   19 1
  20    8   32 1
  21    9   10 1
  22    9   41 1
  23    9   47 1
  24   10   11 ar
  25   10   12 ar
  26   11   15 ar
  27   12   13 ar
  28   12   60 1
  29   13   14 ar
  30   13   61 1
  31   14   15 ar
  32   14   62 1
  33   15   63 1
  34   16   17 1
  35   16   27 1
  36   16   34 1
  37   17   18 1
  38   17   64 1
  39   17   65 1
  40   18   19 1
  41   18   28 1
  42   18   31 1
  43   19   20 1
  44   19   26 1
  45   20   21 ar
  46   20   22 ar
  47   21   25 ar
  48   22   23 ar
  49   22   66 1
  50   23   24 ar
  51   23   67 1
  52   24   25 ar
  53   24   68 1
  54   25   69 1
  55   26   30 1
  56   26   70 1
  57   26   71 1
  58   27   36 2
  59   27   29 1
  60   28   29 1
  61   28   53 1
  62   28   30 1
  63   29   72 1
  64   29   73 1
  65   30   74 1
  66   30   75 1
  67   35   37 1
  68   36   37 1
  69   36   76 1
  70   37   77 1
  71   37   78 1
  72   40   52 1
  73   40   79 1
  74   41   46 1
  75   41   49 1
  76   41   43 1
  77   42   43 1
  78   42   44 1
  79   42   50 1
  80   43   80 1
  81   43   81 1
  82   44   45 1
  83   44   51 2
  84   45   46 1
  85   45   82 1
  86   45   83 1
  87   46   56 1
  88   46   48 1
  89   47   48 1
  90   47   84 1
  91   47   85 1
  92   48   86 1
  93   48   87 1
  94   51   52 1
  95   51   88 1
  96   52   89 1
  97   52   90 1
  98   53   54 1
  99   53   91 1
 100   53   92 1
 101   54   55 2
 102   54   93 1
 103   55   94 1
 104   55   95 1
 105   56   57 1
 106   56   96 1
 107   56   97 1
 108   57   58 2
 109   57   98 1
 110   58   99 1
 111   58  100 1

#	End of record

