#	Name: ASD07300264
#	Creating user name:	WinNT
#	Creation time:	15. 06. 2019 21:09

#	Modifying user name:	WinNT
#	Modification time:	15. 06. 2019 21:09

#	Program:	/corina/corina34_cracker 3.40 0067  02.08.2006

@<TRIPOS>MOLECULE
ASD07300264
  32   35    0    0    0
SMALL
NO_CHARGES


@<TRIPOS>ATOM
   1 C1            -0.0170     1.4013     0.0097 C.ar    
   2 C2             0.0021    -0.0041     0.0020 C.ar    
   3 C3             1.2344    -0.6639    -0.0140 C.ar    
   4 C4             2.3852     0.1032    -0.0215 C.ar    
   5 C5             2.2857     1.4844    -0.0131 C.ar    
   6 N6             1.1134     2.0870     0.0026 N.ar    
   7 C7            -2.0954     0.6208     0.0341 C.2     
   8 N8            -1.3522     1.7614     0.0300 N.pl3   
   9 N9            -1.2865    -0.4238     0.0128 N.2     
  10 N10           -3.4525     0.8861     0.0545 N.pl3   
  11 C11           -3.6609     2.3382     0.0648 C.3     
  12 C12           -2.2419     2.9309     0.0485 C.3     
  13 C13           -4.4657    -0.0773     0.0635 C.ar    
  14 C14           -4.1419    -1.4280     0.0523 C.ar    
  15 C15           -5.1452    -2.3770     0.0617 C.ar    
  16 C16           -6.4708    -1.9839     0.0823 C.ar    
  17 C17           -6.7966    -0.6399     0.0936 C.ar    
  18 C18           -5.7982     0.3142     0.0896 C.ar    
  19 N19           -7.5436    -3.0038     0.0918 N.pl3   
  20 O20           -7.2582    -4.1879     0.0815 O.2     
  21 O21           -8.7116    -2.6590     0.1100 O.2     
  22 H22            1.2864    -1.7426    -0.0199 H       
  23 H23            3.3551    -0.3718    -0.0335 H       
  24 H24            3.1867     2.0799    -0.0187 H       
  25 H25           -4.2139     2.6494    -0.8215 H       
  26 H26           -4.1887     2.6404     0.9693 H       
  27 H27           -2.0683     3.5264     0.9447 H       
  28 H28           -2.0929     3.5360    -0.8458 H       
  29 H29           -3.1068    -1.7357     0.0358 H       
  30 H30           -4.8942    -3.4274     0.0525 H       
  31 H31           -7.8329    -0.3362     0.1097 H       
  32 H32           -6.0532     1.3636     0.1025 H       
@<TRIPOS>BOND
   1    1    2 ar
   2    1    6 ar
   3    1    8 1
   4    2    3 ar
   5    2    9 1
   6    3    4 ar
   7    3   22 1
   8    4    5 ar
   9    4   23 1
  10    5    6 ar
  11    5   24 1
  12    7    8 1
  13    7    9 2
  14    7   10 1
  15    8   12 1
  16   10   11 1
  17   10   13 1
  18   11   12 1
  19   11   25 1
  20   11   26 1
  21   12   27 1
  22   12   28 1
  23   13   14 ar
  24   13   18 ar
  25   14   15 ar
  26   14   29 1
  27   15   16 ar
  28   15   30 1
  29   16   17 ar
  30   16   19 1
  31   17   18 ar
  32   17   31 1
  33   18   32 1
  34   19   20 2
  35   19   21 2

#	End of record

