#	Name: ASD03090964
#	Creating user name:	WinNT
#	Creation time:	15. 06. 2019 20:29

#	Modifying user name:	WinNT
#	Modification time:	15. 06. 2019 20:29

#	Program:	/corina/corina34_cracker 3.40 0067  02.08.2006

@<TRIPOS>MOLECULE
ASD03090964
  52   56    0    0    0
SMALL
NO_CHARGES


@<TRIPOS>ATOM
   1 N1            -0.0188     1.4673    -0.0838 N.am    
   2 C2             0.0008    -0.0024    -0.1166 C.3     
   3 C3             1.4794    -0.4395    -0.1841 C.3     
   4 C4             2.1874     0.8170    -0.7562 C.3     
   5 C5             1.3708     1.9592    -0.1018 C.3     
   6 C6            -1.1243     2.2375    -0.0491 C.2     
   7 O7            -2.2278     1.7198    -0.0428 O.2     
   8 N8            -1.0107     3.5684    -0.0216 N.2     
   9 C9            -0.4326     0.0629     2.3530 C.ar    
  10 C10           -0.6394    -0.5515     1.1322 C.ar    
  11 C11           -1.4437    -1.6790     1.0711 C.ar    
  12 C12           -2.0124    -2.1484     2.2455 C.ar    
  13 C13           -1.7604    -1.4816     3.4293 C.ar    
  14 N14           -0.9894    -0.4117     3.4499 N.ar    
  15 S15           -3.7398     3.7959     0.0278 S.3     
  16 C16           -2.1024     4.3290     0.0127 C.2     
  17 N17           -2.1550     5.6846     0.0435 N.pl3   
  18 C18           -3.3921     6.2525     0.0763 C.2     
  19 C19           -4.4303     5.4271     0.0752 C.2     
  20 O20            2.4602     8.7439     0.0479 O.3     
  21 C21            2.3558    10.0917    -0.4236 C.3     
  22 C22            1.1211    10.7329     0.2242 C.3     
  23 O23           -0.0301     9.9703    -0.1539 O.3     
  24 C24            0.0733     8.6166    -0.0559 C.ar    
  25 C25            1.3172     8.0034     0.0429 C.ar    
  26 C26           -1.0787     7.8459    -0.0547 C.ar    
  27 C27           -0.9896     6.4641     0.0421 C.ar    
  28 C28            0.2537     5.8546     0.1379 C.ar    
  29 C29            1.4023     6.6224     0.1382 C.ar    
  30 F30            1.2587    10.7207     1.6164 F       
  31 F31            0.9829    12.0504    -0.2255 F       
  32 F32            3.5027    10.8075    -0.0640 F       
  33 F33            2.2138    10.0950    -1.8154 F       
  34 C34           -5.8904     5.7985     0.1077 C.3     
  35 H35           -0.5322    -0.3608    -0.9973 H       
  36 H36            1.8574    -0.6758     0.8106 H       
  37 H37            1.6000    -1.2895    -0.8556 H       
  38 H38            3.2309     0.8539    -0.4434 H       
  39 H39            2.1054     0.8510    -1.8426 H       
  40 H40            1.4438     2.8681    -0.6990 H       
  41 H41            1.7215     2.1424     0.9139 H       
  42 H42            0.1963     0.9391     2.4098 H       
  43 H43           -1.6234    -2.1796     0.1312 H       
  44 H44           -2.6447    -3.0240     2.2351 H       
  45 H45           -2.1996    -1.8408     4.3482 H       
  46 H46           -3.5217     7.3244     0.1021 H       
  47 H47           -2.0458     8.3206    -0.1300 H       
  48 H48            0.3233     4.7794     0.2122 H       
  49 H49            2.3687     6.1461     0.2126 H       
  50 H50           -6.4962     4.8924     0.0984 H       
  51 H51           -6.1007     6.3668     1.0138 H       
  52 H52           -6.1306     6.4051    -0.7655 H       
@<TRIPOS>BOND
   1    1    2 1
   2    1    5 1
   3    1    6 am
   4    2    3 1
   5    2   10 1
   6    2   35 1
   7    3    4 1
   8    3   36 1
   9    3   37 1
  10    4    5 1
  11    4   38 1
  12    4   39 1
  13    5   40 1
  14    5   41 1
  15    6    7 2
  16    6    8 1
  17    8   16 2
  18    9   10 ar
  19    9   14 ar
  20    9   42 1
  21   10   11 ar
  22   11   12 ar
  23   11   43 1
  24   12   13 ar
  25   12   44 1
  26   13   14 ar
  27   13   45 1
  28   15   16 1
  29   15   19 1
  30   16   17 1
  31   17   18 1
  32   17   27 1
  33   18   19 2
  34   18   46 1
  35   19   34 1
  36   20   21 1
  37   20   25 1
  38   21   22 1
  39   21   32 1
  40   21   33 1
  41   22   23 1
  42   22   30 1
  43   22   31 1
  44   23   24 1
  45   24   25 ar
  46   24   26 ar
  47   25   29 ar
  48   26   27 ar
  49   26   47 1
  50   27   28 ar
  51   28   29 ar
  52   28   48 1
  53   29   49 1
  54   34   50 1
  55   34   51 1
  56   34   52 1

#	End of record

