#	Name: ASD01918396
#	Creating user name:	WinNT
#	Creation time:	15. 06. 2019 20:11

#	Modifying user name:	WinNT
#	Modification time:	15. 06. 2019 20:11

#	Program:	/corina/corina34_cracker 3.40 0067  02.08.2006

@<TRIPOS>MOLECULE
ASD01918396
  44   47    0    0    0
SMALL
NO_CHARGES


@<TRIPOS>ATOM
   1 O1             1.8045     1.7931     0.8435 O.3     
   2 C2             1.0978     0.6690     0.5652 C.ar    
   3 C3             0.9901     0.2199    -0.7422 C.ar    
   4 C4             0.2699    -0.9243    -1.0241 C.ar    
   5 C5            -0.3492    -1.6310    -0.0065 C.ar    
   6 C6            -0.2526    -1.1991     1.2988 C.ar    
   7 C7             0.4778    -0.0469     1.5988 C.ar    
   8 C8             0.5904     0.4177     2.9943 C.2     
   9 O9             1.2224     1.4245     3.2508 O.2     
  10 N10           -0.0071    -0.2736     3.9850 N.am    
  11 C11            0.1707     0.1172     5.3165 C.ar    
  12 C12            0.4051     1.4507     5.6247 C.ar    
  13 C13            0.5799     1.8339     6.9402 C.ar    
  14 C14            0.5215     0.8903     7.9505 C.ar    
  15 Cl15           0.7410     1.3753     9.6028 Cl      
  16 C16            0.2880    -0.4396     7.6461 C.ar    
  17 C17            0.1073    -0.8272     6.3331 C.ar    
  18 C18           -0.1531    -2.2744     6.0030 C.3     
  19 N19            1.1025    -2.9193     5.6107 N.am    
  20 C20            1.5120    -3.0773     4.3390 C.2     
  21 O21            0.9090    -2.7137     3.3494 O.2     
  22 C22            2.8188    -3.7677     4.3483 C.ar    
  23 C23            3.6980    -4.1873     3.3644 C.ar    
  24 C24            4.8768    -4.8265     3.7202 C.ar    
  25 C25            5.1806    -5.0482     5.0484 C.ar    
  26 C26            4.3089    -4.6333     6.0488 C.ar    
  27 F27            4.6110    -4.8532     7.3471 F       
  28 C28            3.1263    -3.9922     5.7065 C.ar    
  29 C29            2.0001    -3.4262     6.4749 C.2     
  30 O30            1.8994    -3.4216     7.6854 O.2     
  31 H31            2.7405     1.6339     1.0267 H       
  32 H32            1.4697     0.7657    -1.5412 H       
  33 H33            0.1887    -1.2698    -2.0441 H       
  34 H34           -0.9105    -2.5245    -0.2368 H       
  35 H35           -0.7376    -1.7529     2.0890 H       
  36 H36           -0.5605    -1.0420     3.7748 H       
  37 H37            0.4512     2.1876     4.8364 H       
  38 H38            0.7626     2.8709     7.1804 H       
  39 H39            0.2432    -1.1741     8.4365 H       
  40 H40           -0.5626    -2.7787     6.8783 H       
  41 H41           -0.8660    -2.3369     5.1809 H       
  42 H42            3.4666    -4.0179     2.3231 H       
  43 H43            5.5620    -5.1535     2.9521 H       
  44 H44            6.1012    -5.5475     5.3121 H       
@<TRIPOS>BOND
   1    1    2 1
   2    1   31 1
   3    2    7 ar
   4    2    3 ar
   5    3    4 ar
   6    3   32 1
   7    4    5 ar
   8    4   33 1
   9    5    6 ar
  10    5   34 1
  11    6    7 ar
  12    6   35 1
  13    7    8 1
  14    8    9 2
  15    8   10 am
  16   10   11 1
  17   10   36 1
  18   11   17 ar
  19   11   12 ar
  20   12   13 ar
  21   12   37 1
  22   13   14 ar
  23   13   38 1
  24   14   15 1
  25   14   16 ar
  26   16   17 ar
  27   16   39 1
  28   17   18 1
  29   18   19 1
  30   18   40 1
  31   18   41 1
  32   19   29 am
  33   19   20 am
  34   20   21 2
  35   20   22 1
  36   22   28 ar
  37   22   23 ar
  38   23   24 ar
  39   23   42 1
  40   24   25 ar
  41   24   43 1
  42   25   26 ar
  43   25   44 1
  44   26   27 1
  45   26   28 ar
  46   28   29 1
  47   29   30 2

#	End of record

