#	Name: ASD05300026
#	Creating user name:	WinNT
#	Creation time:	15. 06. 2019 20:58

#	Modifying user name:	WinNT
#	Modification time:	15. 06. 2019 20:58

#	Program:	/corina/corina34_cracker 3.40 0067  02.08.2006

@<TRIPOS>MOLECULE
ASD05300026
  35   37    0    0    0
SMALL
NO_CHARGES


@<TRIPOS>ATOM
   1 C1             0.1914     1.4473    -0.1227 C.3     
   2 N2             0.0021    -0.0041     0.0020 N.3     
   3 C3             0.6721    -0.5022     1.1233 C.2     
   4 C4             1.2321     0.3683     1.8987 C.2     
   5 C5             2.0011     0.0444     3.1052 C.2     
   6 C6             1.9247     0.8130     4.1707 C.2     
   7 C7             2.7319     0.5018     5.3628 C.2     
   8 C8             3.5359    -0.5401     5.3597 C.2     
   9 C9             3.6141    -1.4062     4.1707 C.2     
  10 C10            2.8755    -1.1409     3.1146 C.2     
  11 N11            2.8702    -1.9822     2.0576 N.am    
  12 C12            1.7272    -2.6147     1.7083 C.2     
  13 C13            0.6629    -1.9568     1.3022 C.2     
  14 C14           -0.5820    -2.6980     1.0032 C.2     
  15 C15           -0.6183    -4.0069     1.1013 C.2     
  16 C16            0.5886    -4.7452     1.5115 C.2     
  17 C17            1.6900    -4.0891     1.8017 C.2     
  18 C18            4.0003    -2.1901     1.3532 C.2     
  19 O19            3.9933    -2.9458     0.4046 O.2     
  20 N20            5.1382    -1.5582     1.7030 N.am    
  21 H21            1.2541     1.6677    -0.2241 H       
  22 H22           -0.3402     1.8088    -1.0030 H       
  23 H23           -0.1991     1.9424     0.7664 H       
  24 H24           -0.9786    -0.2395     0.0326 H       
  25 H25            1.1259     1.4111     1.6384 H       
  26 H26            1.2699     1.6719     4.1711 H       
  27 H27            2.6641     1.1289     6.2395 H       
  28 H28            4.1385    -0.7599     6.2286 H       
  29 H29            4.2774    -2.2585     4.1658 H       
  30 H30           -1.4678    -2.1584     0.7023 H       
  31 H31           -1.5310    -4.5409     0.8822 H       
  32 H32            0.5684    -5.8230     1.5782 H       
  33 H33            2.5746    -4.6314     2.1016 H       
  34 H34            5.1438    -0.9539     2.4617 H       
  35 H35            5.9516    -1.7079     1.1961 H       
@<TRIPOS>BOND
   1    1    2 1
   2    1   21 1
   3    1   22 1
   4    1   23 1
   5    2    3 1
   6    2   24 1
   7    3    4 2
   8    3   13 1
   9    4    5 1
  10    4   25 1
  11    5    6 2
  12    5   10 1
  13    6    7 1
  14    6   26 1
  15    7    8 2
  16    7   27 1
  17    8    9 1
  18    8   28 1
  19    9   10 2
  20    9   29 1
  21   10   11 1
  22   11   12 1
  23   11   18 am
  24   12   13 2
  25   12   17 1
  26   13   14 1
  27   14   15 2
  28   14   30 1
  29   15   16 1
  30   15   31 1
  31   16   17 2
  32   16   32 1
  33   17   33 1
  34   18   19 2
  35   18   20 am
  36   20   34 1
  37   20   35 1

#	End of record

