#	Name: ASD03331103
#	Creating user name:	WinNT
#	Creation time:	15. 06. 2019 20:38

#	Modifying user name:	WinNT
#	Modification time:	15. 06. 2019 20:38

#	Program:	/corina/corina34_cracker 3.40 0067  02.08.2006

@<TRIPOS>MOLECULE
ASD03331103
  71   74    0    0    0
SMALL
NO_CHARGES


@<TRIPOS>ATOM
   1 N1            -0.1143     1.2729     0.4298 N.pl3   
   2 C2            -0.0294    -0.0796     0.3152 C.2     
   3 C3             1.2462    -0.8806     0.2991 C.3     
   4 N4             2.1117    -0.4313     1.4007 N.3     
   5 C5             2.9740     0.6748     0.9804 C.3     
   6 C6             2.2646     1.5638    -0.0369 C.3     
   7 C7             1.0188     2.1871     0.5987 C.3     
   8 C8            -1.4363     1.6059     0.3703 C.2     
   9 N9            -2.1401     0.5053     0.2426 N.2     
  10 C10           -1.3012    -0.5536     0.2082 C.2     
  11 C11           -1.6928    -1.9681     0.0775 C.2     
  12 O12           -0.8407    -2.8357     0.0579 O.2     
  13 N13           -2.9953    -2.3004    -0.0202 N.am    
  14 C14           -1.9844     2.9775     0.4386 C.ar    
  15 C15           -2.9537     3.3919    -0.4789 C.ar    
  16 C16           -3.4628     4.6746    -0.4100 C.ar    
  17 C17           -3.0138     5.5489     0.5656 C.ar    
  18 C18           -2.0510     5.1426     1.4789 C.ar    
  19 C19           -1.5399     3.8609     1.4230 C.ar    
  20 F20           -1.6167     6.0009     2.4275 F       
  21 F21           -3.5146     6.8022     0.6282 F       
  22 F22           -3.3919     2.5401    -1.4316 F       
  23 C23            2.9069    -1.5457     1.9335 C.3     
  24 C24           -4.7245    -3.7958    -0.8344 C.2     
  25 C25           -3.3847    -3.7067    -0.1501 C.3     
  26 C26           -3.4785    -4.3404     1.2393 C.3     
  27 C27           -4.0173    -5.7669     1.1139 C.3     
  28 O28           -5.5734    -2.9574    -0.6170 O.2     
  29 C29           -2.0891    -4.3744     1.8792 C.3     
  30 C30           -4.4228    -3.5136     2.1142 C.3     
  31 N31           -4.9793    -4.8073    -1.6879 N.am    
  32 C32           -6.2720    -5.0784    -2.3337 C.3     
  33 C33           -6.0954    -6.3441    -3.1988 C.3     
  34 C34           -4.8704    -7.0407    -2.5496 C.3     
  35 C35           -4.0064    -5.8213    -2.1334 C.3     
  36 O36           -7.2531    -7.1779    -3.1171 O.3     
  37 C37           -7.5002    -7.9465    -4.2962 C.3     
  38 H38            1.0141    -1.9380     0.4261 H       
  39 H39            1.7586    -0.7307    -0.6512 H       
  40 H40            3.2417     1.2715     1.8524 H       
  41 H41            3.8815     0.2708     0.5317 H       
  42 H42            2.9408     2.3552    -0.3604 H       
  43 H43            1.9705     0.9649    -0.8989 H       
  44 H44            0.7970     3.1364     0.1111 H       
  45 H45            1.1967     2.3545     1.6610 H       
  46 H46           -3.6749    -1.6084    -0.0045 H       
  47 H47           -4.2120     4.9959    -1.1185 H       
  48 H48           -0.7940     3.5443     2.1370 H       
  49 H49            3.4810    -2.0008     1.1264 H       
  50 H50            3.5881    -1.1728     2.6984 H       
  51 H51            2.2418    -2.2901     2.3710 H       
  52 H52           -2.6386    -4.2371    -0.7418 H       
  53 H53           -3.3038    -6.3774     0.5604 H       
  54 H54           -4.1623    -6.1892     2.1083 H       
  55 H55           -4.9695    -5.7504     0.5838 H       
  56 H56           -1.7053    -3.3581     1.9685 H       
  57 H57           -2.1559    -4.8259     2.8690 H       
  58 H58           -1.4163    -4.9634     1.2558 H       
  59 H59           -5.4126    -3.4894     1.6584 H       
  60 H60           -4.4896    -3.9651     3.1041 H       
  61 H61           -4.0390    -2.4974     2.2036 H       
  62 H62           -7.0361    -5.2510    -1.5758 H       
  63 H63           -6.5556    -4.2354    -2.9637 H       
  64 H64           -5.8834    -6.0771    -4.2341 H       
  65 H65           -5.1693    -7.6267    -1.6805 H       
  66 H66           -4.3439    -7.6610    -3.2749 H       
  67 H67           -3.4347    -5.4505    -2.9842 H       
  68 H68           -3.3386    -6.0916    -1.3154 H       
  69 H69           -8.3952    -8.5521    -4.1542 H       
  70 H70           -7.6458    -7.2759    -5.1431 H       
  71 H71           -6.6480    -8.5976    -4.4907 H       
@<TRIPOS>BOND
   1    1    2 1
   2    1    7 1
   3    1    8 1
   4    2    3 1
   5    2   10 2
   6    3    4 1
   7    3   38 1
   8    3   39 1
   9    4    5 1
  10    4   23 1
  11    5    6 1
  12    5   40 1
  13    5   41 1
  14    6    7 1
  15    6   42 1
  16    6   43 1
  17    7   44 1
  18    7   45 1
  19    8    9 2
  20    8   14 1
  21    9   10 1
  22   10   11 1
  23   11   12 2
  24   11   13 am
  25   13   25 1
  26   13   46 1
  27   14   15 ar
  28   14   19 ar
  29   15   16 ar
  30   15   22 1
  31   16   17 ar
  32   16   47 1
  33   17   18 ar
  34   17   21 1
  35   18   19 ar
  36   18   20 1
  37   19   48 1
  38   23   49 1
  39   23   50 1
  40   23   51 1
  41   24   28 2
  42   24   31 am
  43   24   25 1
  44   25   26 1
  45   25   52 1
  46   26   27 1
  47   26   29 1
  48   26   30 1
  49   27   53 1
  50   27   54 1
  51   27   55 1
  52   29   56 1
  53   29   57 1
  54   29   58 1
  55   30   59 1
  56   30   60 1
  57   30   61 1
  58   31   32 1
  59   31   35 1
  60   32   33 1
  61   32   62 1
  62   32   63 1
  63   33   34 1
  64   33   36 1
  65   33   64 1
  66   34   35 1
  67   34   65 1
  68   34   66 1
  69   35   67 1
  70   35   68 1
  71   36   37 1
  72   37   69 1
  73   37   70 1
  74   37   71 1

#	End of record

