#	Name: ASD03330942
#	Creating user name:	WinNT
#	Creation time:	15. 06. 2019 20:38

#	Modifying user name:	WinNT
#	Modification time:	15. 06. 2019 20:38

#	Program:	/corina/corina34_cracker 3.40 0067  02.08.2006

@<TRIPOS>MOLECULE
ASD03330942
  65   68    0    0    0
SMALL
NO_CHARGES


@<TRIPOS>ATOM
   1 C1             0.0248     1.0807     0.1157 C.2     
   2 C2             0.0365    -0.4100     0.3370 C.3     
   3 N3             1.1468     1.8462     0.0790 N.pl3   
   4 N4             1.4128    -0.8917     0.1214 N.3     
   5 C5             2.3813    -0.0879     0.8803 C.3     
   6 C6             2.4988     1.3089     0.2569 C.3     
   7 C7             0.7603     3.1301    -0.1417 C.2     
   8 N8            -0.5503     3.1613    -0.2351 N.2     
   9 C9            -1.0325     1.9065    -0.0845 C.2     
  10 C10           -2.4509     1.5089    -0.1272 C.2     
  11 O11           -2.7603     0.3426     0.0254 O.2     
  12 N12           -3.4051     2.4376    -0.3354 N.am    
  13 C13            1.6630     4.2968    -0.2566 C.ar    
  14 C14            3.0257     4.1080    -0.4880 C.ar    
  15 C15            3.8623     5.2001    -0.5941 C.ar    
  16 C16            3.3524     6.4802    -0.4711 C.ar    
  17 C17            2.0020     6.6741    -0.2412 C.ar    
  18 C18            1.1539     5.5905    -0.1397 C.ar    
  19 C19            1.5310    -2.3163     0.4599 C.3     
  20 C20           -5.5931     3.0431    -1.1928 C.2     
  21 C21           -4.8151     2.0423    -0.3778 C.3     
  22 C22           -5.3753     1.9977     1.0453 C.3     
  23 C23           -6.8286     1.5207     1.0066 C.3     
  24 O24           -5.2394     4.2026    -1.2278 O.2     
  25 O25           -8.1979     1.7877    -4.0077 O.3     
  26 C26           -7.7222     3.1357    -4.0321 C.3     
  27 C27           -7.5221     3.6263    -2.5936 C.3     
  28 N28           -6.6820     2.6496    -1.8827 N.am    
  29 C29           -7.0655     1.2304    -1.9477 C.3     
  30 C30           -7.2878     0.8565    -3.4176 C.3     
  31 C31           -4.5437     1.0311     1.8907 C.3     
  32 C32           -5.3140     3.3967     1.6616 C.3     
  33 H33           -0.2766    -0.6335     1.3569 H       
  34 H34           -0.6379    -0.8927    -0.3703 H       
  35 H35            2.0458     0.0034     1.9133 H       
  36 H36            3.3548    -0.5776     0.8583 H       
  37 H37            2.9970     1.2392    -0.7101 H       
  38 H38            3.0693     1.9603     0.9189 H       
  39 H39           -3.1583     3.3677    -0.4571 H       
  40 H40            3.4251     3.1091    -0.5835 H       
  41 H41            4.9174     5.0552    -0.7733 H       
  42 H42            4.0113     7.3318    -0.5546 H       
  43 H43            1.6100     7.6759    -0.1457 H       
  44 H44            0.0991     5.7433     0.0346 H       
  45 H45            0.8551    -2.8964    -0.1685 H       
  46 H46            2.5562    -2.6459     0.2917 H       
  47 H47            1.2692    -2.4637     1.5077 H       
  48 H48           -4.9024     1.0561    -0.8337 H       
  49 H49           -6.8663     0.5014     0.6222 H       
  50 H50           -7.2459     1.5452     2.0132 H       
  51 H51           -7.4088     2.1758     0.3567 H       
  52 H52           -6.7729     3.1772    -4.5662 H       
  53 H53           -8.4518     3.7703    -4.5351 H       
  54 H54           -7.0280     4.5979    -2.6025 H       
  55 H55           -8.4886     3.7100    -2.0965 H       
  56 H56           -6.2691     0.6153    -1.5288 H       
  57 H57           -7.9860     1.0728    -1.3855 H       
  58 H58           -7.7050    -0.1487    -3.4785 H       
  59 H59           -6.3370     0.8897    -3.9495 H       
  60 H60           -3.5083     1.3709     1.9183 H       
  61 H61           -4.9428     0.9993     2.9045 H       
  62 H62           -4.5873     0.0344     1.4517 H       
  63 H63           -5.9065     4.0854     1.0593 H       
  64 H64           -5.7131     3.3650     2.6754 H       
  65 H65           -4.2787     3.7366     1.6891 H       
@<TRIPOS>BOND
   1    1    2 1
   2    1    3 1
   3    1    9 2
   4    2    4 1
   5    2   33 1
   6    2   34 1
   7    3    6 1
   8    3    7 1
   9    4    5 1
  10    4   19 1
  11    5    6 1
  12    5   35 1
  13    5   36 1
  14    6   37 1
  15    6   38 1
  16    7    8 2
  17    7   13 1
  18    8    9 1
  19    9   10 1
  20   10   11 2
  21   10   12 am
  22   12   21 1
  23   12   39 1
  24   13   14 ar
  25   13   18 ar
  26   14   15 ar
  27   14   40 1
  28   15   16 ar
  29   15   41 1
  30   16   17 ar
  31   16   42 1
  32   17   18 ar
  33   17   43 1
  34   18   44 1
  35   19   45 1
  36   19   46 1
  37   19   47 1
  38   20   24 2
  39   20   28 am
  40   20   21 1
  41   21   22 1
  42   21   48 1
  43   22   23 1
  44   22   31 1
  45   22   32 1
  46   23   49 1
  47   23   50 1
  48   23   51 1
  49   25   26 1
  50   25   30 1
  51   26   27 1
  52   26   52 1
  53   26   53 1
  54   27   28 1
  55   27   54 1
  56   27   55 1
  57   28   29 1
  58   29   30 1
  59   29   56 1
  60   29   57 1
  61   30   58 1
  62   30   59 1
  63   31   60 1
  64   31   61 1
  65   31   62 1
  66   32   63 1
  67   32   64 1
  68   32   65 1

#	End of record

