#	Name: ASD01918577
#	Creating user name:	WinNT
#	Creation time:	15. 06. 2019 20:11

#	Modifying user name:	WinNT
#	Modification time:	15. 06. 2019 20:11

#	Program:	/corina/corina34_cracker 3.40 0067  02.08.2006

@<TRIPOS>MOLECULE
ASD01918577
  46   49    0    0    0
SMALL
NO_CHARGES


@<TRIPOS>ATOM
   1 C1             0.0361     1.3803     0.0878 C.2     
   2 C2             0.0428     0.0271     0.1729 C.2     
   3 C3            -1.1783    -0.8124     0.4379 C.3     
   4 C4            -2.4213     0.0494     0.1799 C.3     
   5 C5            -2.2837     1.3821     0.9208 C.3     
   6 C6            -1.1944     2.2321     0.2558 C.3     
   7 N7             1.2882     1.7533    -0.1565 N.2     
   8 N8             2.0282     0.6982    -0.2176 N.2     
   9 N9             1.3147    -0.3601    -0.0236 N.pl3   
  10 C10            1.8053    -1.7406    -0.0185 C.3     
  11 C11            3.3302    -1.7403    -0.1431 C.3     
  12 C12            1.4006    -2.4208     1.2908 C.3     
  13 C13            1.1974    -2.5022    -1.1981 C.3     
  14 C14           -3.6165     2.1319     0.8726 C.3     
  15 N15           -4.6813     1.3375     1.5115 N.2     
  16 C16           -5.0928     2.0631     2.5128 C.2     
  17 N17           -4.4028     3.2397     2.5822 N.2     
  18 N18           -3.5531     3.3530     1.6920 N.2     
  19 C19           -6.1666     1.6645     3.4511 C.ar    
  20 C20           -6.5356     2.5144     4.4945 C.ar    
  21 C21           -7.5364     2.1389     5.3654 C.ar    
  22 C22           -8.1755     0.9191     5.2061 C.ar    
  23 C23           -7.8125     0.0712     4.1711 C.ar    
  24 C24           -6.8169     0.4402     3.2915 C.ar    
  25 F25           -9.1549     0.5552     6.0625 F       
  26 H26           -1.1836    -1.6740    -0.2296 H       
  27 H27           -1.1741    -1.1500     1.4743 H       
  28 H28           -2.5176     0.2367    -0.8896 H       
  29 H29           -3.3074    -0.4751     0.5376 H       
  30 H30           -2.0109     1.1937     1.9592 H       
  31 H31           -0.9654     3.0928     0.8841 H       
  32 H32           -1.5386     2.5712    -0.7213 H       
  33 H33            3.7633    -1.1977     0.6973 H       
  34 H34            3.6952    -2.7674    -0.1393 H       
  35 H35            3.6185    -1.2557    -1.0759 H       
  36 H36            0.3143    -2.4210     1.3795 H       
  37 H37            1.7656    -3.4479     1.2946 H       
  38 H38            1.8337    -1.8782     2.1311 H       
  39 H39            1.3956    -1.9591    -2.1221 H       
  40 H40            1.6427    -3.4953    -1.2576 H       
  41 H41            0.1208    -2.5947    -1.0548 H       
  42 H42           -3.8828     2.3719    -0.1567 H       
  43 H43           -6.0378     3.4647     4.6199 H       
  44 H44           -7.8227     2.7961     6.1733 H       
  45 H45           -8.3134    -0.8781     4.0511 H       
  46 H46           -6.5348    -0.2211     2.4855 H       
@<TRIPOS>BOND
   1    1    2 2
   2    1    7 1
   3    1    6 1
   4    2    3 1
   5    2    9 1
   6    3    4 1
   7    3   26 1
   8    3   27 1
   9    4    5 1
  10    4   28 1
  11    4   29 1
  12    5    6 1
  13    5   14 1
  14    5   30 1
  15    6   31 1
  16    6   32 1
  17    7    8 2
  18    8    9 1
  19    9   10 1
  20   10   11 1
  21   10   12 1
  22   10   13 1
  23   11   33 1
  24   11   34 1
  25   11   35 1
  26   12   36 1
  27   12   37 1
  28   12   38 1
  29   13   39 1
  30   13   40 1
  31   13   41 1
  32   14   15 1
  33   14   18 1
  34   14   42 1
  35   15   16 2
  36   16   17 1
  37   16   19 1
  38   17   18 2
  39   19   20 ar
  40   19   24 ar
  41   20   21 ar
  42   20   43 1
  43   21   22 ar
  44   21   44 1
  45   22   23 ar
  46   22   25 1
  47   23   24 ar
  48   23   45 1
  49   24   46 1

#	End of record

