#	Name: ASD00843579
#	Creating user name:	WinNT
#	Creation time:	15. 06. 2019 18:47

#	Modifying user name:	WinNT
#	Modification time:	15. 06. 2019 18:47

#	Program:	/corina/corina34_cracker 3.40 0067  02.08.2006

@<TRIPOS>MOLECULE
ASD00843579
  93   98    0    0    0
SMALL
NO_CHARGES


@<TRIPOS>ATOM
   1 F1             5.6245    -2.2962    -2.2178 F       
   2 N2             0.7593     1.1965    -0.6917 N.ar    
   3 C3             0.9728    -0.0951    -0.8795 C.ar    
   4 C4             0.8695    -0.9906     0.1775 C.ar    
   5 C5             0.5394    -0.5138     1.4339 C.ar    
   6 C6             0.3232     0.8487     1.5894 C.ar    
   7 C7             0.4430     1.6808     0.4944 C.ar    
   8 C8             1.1132    -2.4615    -0.0413 C.3     
   9 C9             0.8093    -3.2425     1.2192 C.2     
  10 C10            0.2669    -2.9759    -1.2075 C.3     
  11 C11           -1.1814    -2.6375    -0.9648 C.2     
  12 N12           -2.1245    -3.0481    -1.8357 N.am    
  13 O13           -1.4983    -1.9956     0.0142 O.2     
  14 C14           -3.5232    -2.6266    -1.6782 C.3     
  15 C15           -4.4146    -3.8724    -1.6609 C.3     
  16 C16           -4.1463    -4.7042    -2.9173 C.3     
  17 C17           -2.6843    -5.1564    -2.9292 C.3     
  18 C18           -1.7724    -3.9207    -2.9641 C.3     
  19 C19           -5.0597    -5.9316    -2.9205 C.3     
  20 C20           -6.5229    -5.4807    -2.9103 C.3     
  21 C21           -7.4311    -6.7107    -2.9751 C.3     
  22 N22           -7.1427    -7.4698    -4.1986 N.3     
  23 C23           -5.7563    -7.9537    -4.2089 C.3     
  24 C24           -4.7981    -6.7608    -4.1809 C.3     
  25 H25           -7.7929    -8.2330    -4.3124 H       
  26 O26           -0.2632    -3.3132     1.7814 O.2     
  27 N27            1.9496    -3.8431     1.5986 N.am    
  28 C28            2.5810    -2.7235    -0.2924 C.ar    
  29 C29            3.0094    -3.5597     0.7336 C.ar    
  30 C30            3.4490    -2.3014    -1.2751 C.ar    
  31 C31            4.7717    -2.7083    -1.2544 C.ar    
  32 C32            5.2202    -3.5490    -0.2306 C.ar    
  33 C33            4.3361    -3.9730     0.7611 C.ar    
  34 C34            1.7274    -6.4576     2.4287 C.ar    
  35 C35            0.4578    -6.7839     1.9738 C.ar    
  36 C36            2.7145    -7.4236     2.4777 C.ar    
  37 C37            2.4402    -8.7160     2.0738 C.ar    
  38 C38            1.1718    -9.0474     1.6181 C.ar    
  39 C39            0.1799    -8.0804     1.5683 C.ar    
  40 O40            0.9024   -10.3189     1.2214 O.3     
  41 O41           -0.5126    -5.8337     1.9262 O.3     
  42 C42            1.9720   -11.2634     1.3000 C.3     
  43 C43           -1.7960    -6.2406     1.4472 C.3     
  44 C44           -2.7499    -5.0445     1.4659 C.3     
  45 O45            1.2953    -0.5499    -2.1164 O.3     
  46 C46            1.2925     0.4046    -3.1798 C.3     
  47 C47            1.7774    -0.2648    -4.4673 C.3     
  48 F48            3.0401    -0.8276    -4.2532 F       
  49 F49            0.8764    -1.2684    -4.8390 F       
  50 S50            2.0834    -4.8086     2.9373 S.o2    
  51 O51            3.4546    -4.7907     3.3095 O.2     
  52 O52            1.0345    -4.4244     3.8156 O.2     
  53 C53            6.5870    -3.9750    -0.2011 C.1     
  54 N54            7.6713    -4.3130    -0.1777 N.1     
  55 H55            0.4517    -1.1864     2.2744 H       
  56 H56            0.0637     1.2533     2.5565 H       
  57 H57            0.2762     2.7415     0.6100 H       
  58 H58            0.5997    -2.5059    -2.1330 H       
  59 H59            0.3787    -4.0571    -1.2885 H       
  60 H60           -3.6375    -2.0824    -0.7407 H       
  61 H61           -3.8077    -1.9853    -2.5124 H       
  62 H62           -4.1906    -4.4677    -0.7758 H       
  63 H63           -5.4617    -3.5703    -1.6413 H       
  64 H64           -4.3468    -4.1002    -3.8022 H       
  65 H65           -2.4766    -5.7397    -2.0321 H       
  66 H66           -2.5000    -5.7682    -3.8122 H       
  67 H67           -1.9155    -3.3874    -3.9039 H       
  68 H68           -0.7317    -4.2318    -2.8729 H       
  69 H69           -4.8590    -6.5373    -2.0368 H       
  70 H70           -6.7264    -4.9260    -1.9944 H       
  71 H71           -6.7130    -4.8422    -3.7730 H       
  72 H72           -7.2504    -7.3419    -2.1050 H       
  73 H73           -8.4736    -6.3925    -2.9824 H       
  74 H74           -5.5834    -8.5790    -3.3330 H       
  75 H75           -5.5823    -8.5382    -5.1123 H       
  76 H76           -4.9610    -6.1424    -5.0636 H       
  77 H77           -3.7692    -7.1206    -4.1728 H       
  78 H78            3.0968    -1.6523    -2.0632 H       
  79 H79            4.6828    -4.6222     1.5515 H       
  80 H80            3.7021    -7.1676     2.8320 H       
  81 H81            3.2135    -9.4689     2.1124 H       
  82 H82           -0.8078    -8.3365     1.2144 H       
  83 H83            2.3100   -11.3443     2.3331 H       
  84 H84            1.6234   -12.2366     0.9545 H       
  85 H85            2.7983   -10.9296     0.6725 H       
  86 H86           -1.7015    -6.6141     0.4275 H       
  87 H87           -2.1897    -7.0294     2.0881 H       
  88 H88           -3.7289    -5.3548     1.1005 H       
  89 H89           -2.8444    -4.6710     2.4855 H       
  90 H90           -2.3562    -4.2557     0.8250 H       
  91 H91            0.2807     0.7829    -3.3258 H       
  92 H92            1.9566     1.2313    -2.9277 H       
  93 H93            1.8409     0.4788    -5.2617 H       
@<TRIPOS>BOND
   1    1   31 1
   2    2    3 ar
   3    2    7 ar
   4    3    4 ar
   5    3   45 1
   6    4    5 ar
   7    4    8 1
   8    5    6 ar
   9    5   55 1
  10    6    7 ar
  11    6   56 1
  12    7   57 1
  13    8    9 1
  14    8   10 1
  15    8   28 1
  16    9   26 2
  17    9   27 am
  18   10   11 1
  19   10   58 1
  20   10   59 1
  21   11   12 am
  22   11   13 2
  23   12   14 1
  24   12   18 1
  25   14   15 1
  26   14   60 1
  27   14   61 1
  28   15   16 1
  29   15   62 1
  30   15   63 1
  31   16   17 1
  32   16   19 1
  33   16   64 1
  34   17   18 1
  35   17   65 1
  36   17   66 1
  37   18   67 1
  38   18   68 1
  39   19   20 1
  40   19   24 1
  41   19   69 1
  42   20   21 1
  43   20   70 1
  44   20   71 1
  45   21   22 1
  46   21   72 1
  47   21   73 1
  48   22   23 1
  49   22   25 1
  50   23   24 1
  51   23   74 1
  52   23   75 1
  53   24   76 1
  54   24   77 1
  55   27   50 am
  56   27   29 1
  57   28   29 ar
  58   28   30 ar
  59   29   33 ar
  60   30   31 ar
  61   30   78 1
  62   31   32 ar
  63   32   33 ar
  64   32   53 1
  65   33   79 1
  66   34   35 ar
  67   34   36 ar
  68   34   50 1
  69   35   41 1
  70   35   39 ar
  71   36   37 ar
  72   36   80 1
  73   37   38 ar
  74   37   81 1
  75   38   39 ar
  76   38   40 1
  77   39   82 1
  78   40   42 1
  79   41   43 1
  80   42   83 1
  81   42   84 1
  82   42   85 1
  83   43   44 1
  84   43   86 1
  85   43   87 1
  86   44   88 1
  87   44   89 1
  88   44   90 1
  89   45   46 1
  90   46   47 1
  91   46   91 1
  92   46   92 1
  93   47   48 1
  94   47   49 1
  95   47   93 1
  96   50   51 2
  97   50   52 2
  98   53   54 3

#	End of record

