#	Name: ASD08070233
#	Creating user name:	WinNT
#	Creation time:	15. 06. 2019 21:14

#	Modifying user name:	WinNT
#	Modification time:	15. 06. 2019 21:14

#	Program:	/corina/corina34_cracker 3.40 0067  02.08.2006

@<TRIPOS>MOLECULE
ASD08070233
  27   28    0    0    0
SMALL
NO_CHARGES


@<TRIPOS>ATOM
   1 C1            -0.0051     1.4029     0.0087 C.ar    
   2 C2             0.0071     0.0054     0.0015 C.ar    
   3 C3             1.2900    -0.7254    -0.0138 C.2     
   4 N4             1.8650    -1.0531    -1.1879 N.am    
   5 C5             3.4357    -2.5968    -2.1707 C.ar    
   6 O6             1.8277    -1.0316     1.0327 O.2     
   7 C7             3.1282    -1.6437    -1.2049 C.ar    
   8 C8            -1.2012    -0.6969     0.0093 C.ar    
   9 C9            -2.3969    -0.0063     0.0241 C.ar    
  10 C10           -2.4008     1.3771     0.0311 C.ar    
  11 C11           -1.2088     2.0792     0.0292 C.ar    
  12 C12            4.0780    -1.2782    -0.2563 C.ar    
  13 C13            5.3265    -1.8587    -0.2707 C.ar    
  14 C14            5.6389    -2.8166    -1.2395 C.ar    
  15 C15            4.6820    -3.1817    -2.1907 C.ar    
  16 Cl16          -1.1989    -2.4329    -0.0000 Cl      
  17 Cl17           1.4894     2.2863    -0.0010 Cl      
  18 C18            6.9365    -3.4220    -1.2578 C.1     
  19 N19            7.9658    -3.9024    -1.2724 N.1     
  20 H20            1.4002    -0.8780    -2.0211 H       
  21 H21            2.6945    -2.8814    -2.9028 H       
  22 H22           -3.3315    -0.5475     0.0298 H       
  23 H23           -3.3391     1.9116     0.0427 H       
  24 H24           -1.2199     3.1591     0.0351 H       
  25 H25            3.8359    -0.5381     0.4920 H       
  26 H26            6.0636    -1.5740     0.4656 H       
  27 H27            4.9199    -3.9217    -2.9405 H       
@<TRIPOS>BOND
   1    1    2 ar
   2    1   17 1
   3    1   11 ar
   4    2    3 1
   5    2    8 ar
   6    3    4 am
   7    3    6 2
   8    4    7 1
   9    4   20 1
  10    5    7 ar
  11    5   15 ar
  12    5   21 1
  13    7   12 ar
  14    8    9 ar
  15    8   16 1
  16    9   10 ar
  17    9   22 1
  18   10   11 ar
  19   10   23 1
  20   11   24 1
  21   12   13 ar
  22   12   25 1
  23   13   14 ar
  24   13   26 1
  25   14   15 ar
  26   14   18 1
  27   15   27 1
  28   18   19 3

#	End of record

