#	Name: ASD01917224
#	Creating user name:	WinNT
#	Creation time:	15. 06. 2019 20:08

#	Modifying user name:	WinNT
#	Modification time:	15. 06. 2019 20:08

#	Program:	/corina/corina34_cracker 3.40 0067  02.08.2006

@<TRIPOS>MOLECULE
ASD01917224
  47   50    0    0    0
SMALL
NO_CHARGES


@<TRIPOS>ATOM
   1 C1            -0.0171     1.4083     0.0098 C.ar    
   2 C2             0.0021    -0.0041     0.0020 C.ar    
   3 C3            -1.1896    -0.7253     0.0414 C.ar    
   4 C4            -2.3840    -0.0642     0.0741 C.ar    
   5 C5            -2.4228     1.3376     0.0659 C.ar    
   6 C6            -1.2429     2.0757     0.0357 C.ar    
   7 N7             1.1592     2.0737     0.0021 N.2     
   8 C8             2.3200     1.4678    -0.0395 C.2     
   9 N9             2.4224     0.1200    -0.1572 N.am    
  10 C10            1.3135    -0.6638    -0.0627 C.2     
  11 C11           -3.7219     2.0343     0.0892 C.2     
  12 O12            1.4057    -1.8769    -0.0322 O.2     
  13 C13           -5.0023     1.2403     0.1219 C.3     
  14 C14            3.5347     2.3469     0.1023 C.3     
  15 C15            4.7921     1.6963    -0.4303 C.3     
  16 C16            4.8987     0.2400    -0.0264 C.3     
  17 C17            3.6828    -0.5598    -0.4360 C.3     
  18 C18            6.1378    -0.3683    -0.6862 C.3     
  19 C19            5.0578     0.1572     1.4931 C.3     
  20 C20           -6.1777     2.1831     0.1411 C.ar    
  21 N21           -6.2547     3.1098     1.0759 N.ar    
  22 C22           -7.2644     3.9563     1.1318 C.ar    
  23 C23           -8.2864     3.8998     0.2035 C.ar    
  24 C24           -8.2401     2.9384    -0.7948 C.ar    
  25 C25           -7.1599     2.0701    -0.8249 C.ar    
  26 O26           -3.7601     3.2459     0.0822 O.2     
  27 H27           -1.1686    -1.8051     0.0456 H       
  28 H28           -3.3062    -0.6254     0.1063 H       
  29 H29           -1.2756     3.1552     0.0320 H       
  30 H30           -5.0593     0.6063    -0.7629 H       
  31 H31           -5.0211     0.6179     1.0166 H       
  32 H32            3.3620     3.2760    -0.4409 H       
  33 H33            3.6789     2.5802     1.1573 H       
  34 H34            4.7909     1.7623    -1.5183 H       
  35 H35            5.6587     2.2342    -0.0460 H       
  36 H36            3.6932    -1.5099     0.0981 H       
  37 H37            3.7417    -0.7623    -1.5054 H       
  38 H38            7.0262     0.1710    -0.3575 H       
  39 H39            6.2233    -1.4169    -0.4013 H       
  40 H40            6.0468    -0.2923    -1.7697 H       
  41 H41            4.1912     0.6105     1.9744 H       
  42 H42            5.1354    -0.8876     1.7939 H       
  43 H43            5.9602     0.6897     1.7934 H       
  44 H44           -7.2931     4.7021     1.9124 H       
  45 H45           -9.1110     4.5954     0.2550 H       
  46 H46           -9.0249     2.8704    -1.5336 H       
  47 H47           -7.0910     1.3093    -1.5884 H       
@<TRIPOS>BOND
   1    1    2 ar
   2    1    7 1
   3    1    6 ar
   4    2    3 ar
   5    2   10 1
   6    3    4 ar
   7    3   27 1
   8    4    5 ar
   9    4   28 1
  10    5    6 ar
  11    5   11 1
  12    6   29 1
  13    7    8 2
  14    8    9 1
  15    8   14 1
  16    9   10 am
  17    9   17 1
  18   10   12 2
  19   11   26 2
  20   11   13 1
  21   13   20 1
  22   13   30 1
  23   13   31 1
  24   14   15 1
  25   14   32 1
  26   14   33 1
  27   15   16 1
  28   15   34 1
  29   15   35 1
  30   16   17 1
  31   16   18 1
  32   16   19 1
  33   17   36 1
  34   17   37 1
  35   18   38 1
  36   18   39 1
  37   18   40 1
  38   19   41 1
  39   19   42 1
  40   19   43 1
  41   20   21 ar
  42   20   25 ar
  43   21   22 ar
  44   22   23 ar
  45   22   44 1
  46   23   24 ar
  47   23   45 1
  48   24   25 ar
  49   24   46 1
  50   25   47 1

#	End of record

