#	Name: ASD02030311
#	Creating user name:	WinNT
#	Creation time:	15. 06. 2019 20:15

#	Modifying user name:	WinNT
#	Modification time:	15. 06. 2019 20:15

#	Program:	/corina/corina34_cracker 3.40 0067  02.08.2006

@<TRIPOS>MOLECULE
ASD02030311
  58   62    0    0    0
SMALL
NO_CHARGES


@<TRIPOS>ATOM
   1 N1            -0.2112     1.4210    -0.1437 N.am    
   2 C2            -0.0218    -0.0124     0.1192 C.3     
   3 C3            -0.9182    -0.4175     1.2960 C.3     
   4 N4            -2.2770     0.0831     1.0453 N.am    
   5 C5            -2.4664     1.5166     0.7824 C.3     
   6 C6            -1.5707     1.9226    -0.3888 C.3     
   7 C7             0.8423     2.2616    -0.1543 C.2     
   8 C8             2.1846     1.7690     0.2212 C.2     
   9 N9             3.2639     2.5055     0.3749 N.2     
  10 N10            2.5166     0.4892     0.4716 N.2     
  11 C11            3.7911     0.4688     0.7681 C.2     
  12 N12            4.2449     1.7374     0.7035 N.pl3   
  13 O13            0.6887     3.4247    -0.4726 O.2     
  14 C14           -3.3305    -0.7574     1.0559 C.2     
  15 C15           -4.7001    -0.2260     0.9125 C.ar    
  16 O16           -3.1527    -1.9534     1.1836 O.2     
  17 C17           -1.5431     3.4475    -0.5096 C.3     
  18 C18           -2.1099     1.3112    -1.6836 C.3     
  19 C19            5.5611     2.1501     0.9510 C.ar    
  20 C20            5.8993     3.4924     0.8501 C.ar    
  21 C21            7.1997     3.8965     1.0951 C.ar    
  22 C22            8.1620     2.9624     1.4404 C.ar    
  23 C23            7.8259     1.6250     1.5411 C.ar    
  24 C24            6.5280     1.2174     1.3032 C.ar    
  25 F25            7.5309     5.2026     0.9969 F       
  26 C26           -5.6721    -0.9679     0.2375 C.ar    
  27 C27           -6.9500    -0.4681     0.1040 C.ar    
  28 C28           -7.2760     0.7734     0.6389 C.ar    
  29 C29           -6.3116     1.5160     1.3154 C.ar    
  30 C30           -5.0294     1.0179     1.4564 C.ar    
  31 O31           -8.5407     1.2502     0.4887 O.3     
  32 C32           -8.9334     2.3192     1.3560 C.3     
  33 C33           -7.8084     3.3629     1.3730 C.3     
  34 O34           -6.6171     2.7295     1.8519 O.3     
  35 Cl35          -8.1564    -1.3918    -0.7357 Cl      
  36 H36           -0.2980    -0.5862    -0.7654 H       
  37 H37            1.0213    -0.2034     0.3712 H       
  38 H38           -0.9388    -1.5038     1.3831 H       
  39 H39           -0.5318     0.0186     2.2172 H       
  40 H40           -3.5095     1.7076     0.5304 H       
  41 H41           -2.1903     2.0904     1.6670 H       
  42 H42            4.3733    -0.4049     1.0210 H       
  43 H43           -1.0462     3.8721     0.3628 H       
  44 H44           -0.9997     3.7309    -1.4110 H       
  45 H45           -2.5637     3.8261    -0.5665 H       
  46 H46           -3.1233     1.6713    -1.8609 H       
  47 H47           -1.4700     1.6019    -2.5167 H       
  48 H48           -2.1206     0.2248    -1.5955 H       
  49 H49            5.1486     4.2204     0.5804 H       
  50 H50            9.1768     3.2790     1.6310 H       
  51 H51            8.5784     0.8987     1.8106 H       
  52 H52            6.2670     0.1724     1.3822 H       
  53 H53           -5.4227    -1.9323    -0.1798 H       
  54 H54           -4.2805     1.5941     1.9795 H       
  55 H55           -9.8517     2.7747     0.9853 H       
  56 H56           -9.0937     1.9352     2.3634 H       
  57 H57           -7.6434     3.7420     0.3645 H       
  58 H58           -8.0795     4.1849     2.0356 H       
@<TRIPOS>BOND
   1    1    2 1
   2    1    7 am
   3    1    6 1
   4    2    3 1
   5    2   36 1
   6    2   37 1
   7    3    4 1
   8    3   38 1
   9    3   39 1
  10    4    5 1
  11    4   14 am
  12    5    6 1
  13    5   40 1
  14    5   41 1
  15    6   17 1
  16    6   18 1
  17    7    8 1
  18    7   13 2
  19    8    9 2
  20    8   10 1
  21    9   12 1
  22   10   11 2
  23   11   12 1
  24   11   42 1
  25   12   19 1
  26   14   15 1
  27   14   16 2
  28   15   26 ar
  29   15   30 ar
  30   17   43 1
  31   17   44 1
  32   17   45 1
  33   18   46 1
  34   18   47 1
  35   18   48 1
  36   19   20 ar
  37   19   24 ar
  38   20   21 ar
  39   20   49 1
  40   21   22 ar
  41   21   25 1
  42   22   23 ar
  43   22   50 1
  44   23   24 ar
  45   23   51 1
  46   24   52 1
  47   26   27 ar
  48   26   53 1
  49   27   28 ar
  50   27   35 1
  51   28   29 ar
  52   28   31 1
  53   29   30 ar
  54   29   34 1
  55   30   54 1
  56   31   32 1
  57   32   33 1
  58   32   55 1
  59   32   56 1
  60   33   34 1
  61   33   57 1
  62   33   58 1

#	End of record

