#	Name: ASD03082056
#	Creating user name:	WinNT
#	Creation time:	15. 06. 2019 20:27

#	Modifying user name:	WinNT
#	Modification time:	15. 06. 2019 20:27

#	Program:	/corina/corina34_cracker 3.40 0067  02.08.2006

@<TRIPOS>MOLECULE
ASD03082056
  65   68    0    0    0
SMALL
NO_CHARGES


@<TRIPOS>ATOM
   1 C1            -0.0187     1.5261     0.0104 C.3     
   2 C2             0.0021    -0.0041     0.0020 C.3     
   3 N3             0.7291    -0.4915     1.1811 N.3     
   4 C4             2.1260    -0.0390     1.1681 C.3     
   5 C5             2.1687     1.4902     1.2114 C.3     
   6 C6             1.4196     2.0513    -0.0005 C.3     
   7 C7             0.6507    -1.9551     1.2800 C.3     
   8 C8             1.3990    -2.5865     0.1043 C.3     
   9 C9             1.3174    -4.1108     0.2074 C.3     
  10 C10            2.0544    -4.7328    -0.9507 C.ar    
  11 C11            3.3998    -5.0283    -0.8352 C.ar    
  12 C12            4.0759    -5.5987    -1.8974 C.ar    
  13 C13            3.4064    -5.8741    -3.0751 C.ar    
  14 C14            2.0607    -5.5795    -3.1903 C.ar    
  15 C15            1.3837    -5.0130    -2.1265 C.ar    
  16 C16            3.6238     1.9618     1.1757 C.3     
  17 O17            3.6691     3.4043     1.3358 O.3     
  18 C18            4.8860     3.9829     1.3267 C.2     
  19 O19            5.8820     3.3007     1.1889 O.2     
  20 C20            5.0089     5.4437     1.4841 C.ar    
  21 C21            3.8667     6.2318     1.6428 C.ar    
  22 C22            3.9885     7.5971     1.7894 C.ar    
  23 C23            5.2390     8.1925     1.7802 C.ar    
  24 C24            6.3771     7.4257     1.6241 C.ar    
  25 C25            6.2742     6.0498     1.4811 C.ar    
  26 N26            7.4238     5.2730     1.3231 N.am    
  27 C27            8.0915     4.7484     2.3582 C.2     
  28 C28            9.2801     3.9684     1.8400 C.3     
  29 C29            9.1823     4.1348     0.3098 C.3     
  30 C30            7.9456     4.9867     0.1240 C.2     
  31 C31            9.1672     2.4931     2.2294 C.3     
  32 O32            7.7918     4.8782     3.5255 O.2     
  33 O33            7.5019     5.3572    -0.9415 O.2     
  34 H34           -0.5449     1.8878    -0.8730 H       
  35 H35           -0.5279     1.8782     0.9076 H       
  36 H36           -1.0203    -0.3813     0.0242 H       
  37 H37            0.4992    -0.3556    -0.9021 H       
  38 H38            2.6463    -0.4415     2.0373 H       
  39 H39            2.6132    -0.3903     0.2586 H       
  40 H40            1.6939     1.8417     2.1274 H       
  41 H41            1.9171     1.7318    -0.9162 H       
  42 H42            1.4102     3.1401     0.0492 H       
  43 H43            1.1041    -2.2807     2.2163 H       
  44 H44           -0.3938    -2.2655     1.2548 H       
  45 H45            0.9457    -2.2608    -0.8319 H       
  46 H46            2.4435    -2.2760     0.1295 H       
  47 H47            1.7707    -4.4365     1.1436 H       
  48 H48            0.2728    -4.4213     0.1821 H       
  49 H49            3.9229    -4.8131     0.0849 H       
  50 H50            5.1272    -5.8289    -1.8074 H       
  51 H51            3.9347    -6.3191    -3.9052 H       
  52 H52            1.5377    -5.7943    -4.1104 H       
  53 H53            0.3323    -4.7828    -2.2165 H       
  54 H54            4.1790     1.4888     1.9857 H       
  55 H55            4.0711     1.6881     0.2202 H       
  56 H56            2.8894     5.7722     1.6503 H       
  57 H57            3.1045     8.2054     1.9117 H       
  58 H58            5.3246     9.2629     1.8954 H       
  59 H59            7.3486     7.8975     1.6180 H       
  60 H60           10.2111     4.3947     2.2135 H       
  61 H61           10.0647     4.6439    -0.0779 H       
  62 H62            9.0533     3.1666    -0.1739 H       
  63 H63            8.2433     2.0801     1.8245 H       
  64 H64           10.0181     1.9446     1.8256 H       
  65 H65            9.1597     2.4037     3.3157 H       
@<TRIPOS>BOND
   1    1    2 1
   2    1    6 1
   3    1   34 1
   4    1   35 1
   5    2    3 1
   6    2   36 1
   7    2   37 1
   8    3    4 1
   9    3    7 1
  10    4    5 1
  11    4   38 1
  12    4   39 1
  13    5    6 1
  14    5   16 1
  15    5   40 1
  16    6   41 1
  17    6   42 1
  18    7    8 1
  19    7   43 1
  20    7   44 1
  21    8    9 1
  22    8   45 1
  23    8   46 1
  24    9   10 1
  25    9   47 1
  26    9   48 1
  27   10   11 ar
  28   10   15 ar
  29   11   12 ar
  30   11   49 1
  31   12   13 ar
  32   12   50 1
  33   13   14 ar
  34   13   51 1
  35   14   15 ar
  36   14   52 1
  37   15   53 1
  38   16   17 1
  39   16   54 1
  40   16   55 1
  41   17   18 1
  42   18   19 2
  43   18   20 1
  44   20   21 ar
  45   20   25 ar
  46   21   22 ar
  47   21   56 1
  48   22   23 ar
  49   22   57 1
  50   23   24 ar
  51   23   58 1
  52   24   25 ar
  53   24   59 1
  54   25   26 1
  55   26   27 am
  56   26   30 am
  57   27   28 1
  58   27   32 2
  59   28   29 1
  60   28   31 1
  61   28   60 1
  62   29   30 1
  63   29   61 1
  64   29   62 1
  65   30   33 2
  66   31   63 1
  67   31   64 1
  68   31   65 1

#	End of record

