#	Name: ASD03090982
#	Creating user name:	WinNT
#	Creation time:	15. 06. 2019 20:29

#	Modifying user name:	WinNT
#	Modification time:	15. 06. 2019 20:29

#	Program:	/corina/corina34_cracker 3.40 0067  02.08.2006

@<TRIPOS>MOLECULE
ASD03090982
  76   81    0    0    0
SMALL
NO_CHARGES


@<TRIPOS>ATOM
   1 N1             1.3833     4.3857    -1.3854 N.am    
   2 C2             1.9954     3.1122    -1.7915 C.3     
   3 C3             3.5040     3.3711    -1.9884 C.3     
   4 C4             3.7526     4.6428    -1.1350 C.3     
   5 C5             2.4307     5.4224    -1.3462 C.3     
   6 C6             0.0795     4.5753    -1.1015 C.2     
   7 O7            -0.7016     3.6423    -1.1725 O.2     
   8 N8            -0.3568     5.7859    -0.7423 N.2     
   9 S9            -2.8985     4.7937    -0.5021 S.3     
  10 C10           -1.6444     5.9732    -0.4620 C.2     
  11 N11           -2.2399     7.1328    -0.0852 N.pl3   
  12 C12           -3.5800     7.0885     0.1519 C.2     
  13 C13           -4.1781     5.9154    -0.0078 C.2     
  14 O14            0.4145    11.9352     0.5189 O.3     
  15 C15           -0.6278    12.6325     1.2263 C.3     
  16 O16           -1.8296    11.9469     0.8278 O.3     
  17 C17           -1.4390    10.6760     0.5186 C.ar    
  18 C18           -0.0587    10.6682     0.3285 C.ar    
  19 C19           -2.1610     9.5028     0.3809 C.ar    
  20 C20           -1.5092     8.3213     0.0540 C.ar    
  21 C21           -0.1340     8.3166    -0.1345 C.ar    
  22 C22            0.5878     9.4871     0.0032 C.ar    
  23 F23           -0.4381    12.5288     2.6085 F       
  24 F24           -0.6747    13.9747     0.8347 F       
  25 C25           -5.6388     5.6022     0.1902 C.3     
  26 C26           -5.8650     5.1069     1.6200 C.3     
  27 C27           -7.3481     4.7889     1.8209 C.3     
  28 C28           -8.1775     6.0522     1.5816 C.3     
  29 C29           -7.9513     6.5475     0.1518 C.3     
  30 C30           -6.4682     6.8654    -0.0492 C.3     
  31 C31           -8.3787     5.4617    -0.8377 C.3     
  32 C32           -5.0356     3.8437     1.8593 C.3     
  33 C33           -5.1328     3.4412     3.3322 C.3     
  34 C34           -5.5709     2.7087     0.9841 C.3     
  35 O35           -6.0380     4.5881    -0.7340 O.3     
  36 C36           -5.8015     4.8258    -2.0510 C.ar    
  37 C37           -6.1992     3.9017    -3.0062 C.ar    
  38 C38           -5.9576     4.1456    -4.3443 C.ar    
  39 C39           -5.3199     5.3096    -4.7319 C.ar    
  40 C40           -4.9220     6.2320    -3.7818 C.ar    
  41 C41           -5.1669     5.9956    -2.4429 C.ar    
  42 H42            1.8463     2.3642    -1.0127 H       
  43 H43            1.5528     2.7698    -2.7269 H       
  44 H44            4.0914     2.5335    -1.6124 H       
  45 H45            3.7289     3.5609    -3.0379 H       
  46 H46            3.8919     4.3874    -0.0846 H       
  47 H47            4.6041     5.2076    -1.5144 H       
  48 H48            2.4590     5.9688    -2.2890 H       
  49 H49            2.2567     6.1063    -0.5155 H       
  50 H50           -4.1300     7.9670     0.4556 H       
  51 H51           -3.2309     9.5066     0.5281 H       
  52 H52            0.3724     7.3972    -0.3888 H       
  53 H53            1.6576     9.4812    -0.1445 H       
  54 H54           -5.5605     5.8805     2.3249 H       
  55 H55           -7.6526     4.0154     1.1160 H       
  56 H56           -7.5092     4.4361     2.8396 H       
  57 H57           -9.2340     5.8256     1.7248 H       
  58 H58           -7.8730     6.8257     2.2866 H       
  59 H59           -8.5421     7.4474    -0.0187 H       
  60 H60           -6.1637     7.6390     0.6558 H       
  61 H61           -6.3071     7.2183    -1.0678 H       
  62 H62           -9.4654     5.3772    -0.8374 H       
  63 H63           -8.0351     5.7259    -1.8379 H       
  64 H64           -7.9400     4.5084    -0.5429 H       
  65 H65           -3.9941     4.0391     1.6040 H       
  66 H66           -4.5962     2.5056     3.4894 H       
  67 H67           -4.6915     4.2217     3.9521 H       
  68 H68           -6.1800     3.3096     3.6046 H       
  69 H69           -5.3185     2.9036    -0.0582 H       
  70 H70           -5.1217     1.7660     1.2966 H       
  71 H71           -6.6540     2.6478     1.0904 H       
  72 H72           -6.6971     2.9922    -2.7040 H       
  73 H73           -6.2667     3.4264    -5.0883 H       
  74 H74           -5.1319     5.4985    -5.7785 H       
  75 H75           -4.4235     7.1401    -4.0869 H       
  76 H76           -4.8603     6.7186    -1.7015 H       
@<TRIPOS>BOND
   1    1    2 1
   2    1    5 1
   3    1    6 am
   4    2    3 1
   5    2   42 1
   6    2   43 1
   7    3    4 1
   8    3   44 1
   9    3   45 1
  10    4    5 1
  11    4   46 1
  12    4   47 1
  13    5   48 1
  14    5   49 1
  15    6    7 2
  16    6    8 1
  17    8   10 2
  18    9   10 1
  19    9   13 1
  20   10   11 1
  21   11   12 1
  22   11   20 1
  23   12   13 2
  24   12   50 1
  25   13   25 1
  26   14   15 1
  27   14   18 1
  28   15   16 1
  29   15   23 1
  30   15   24 1
  31   16   17 1
  32   17   18 ar
  33   17   19 ar
  34   18   22 ar
  35   19   20 ar
  36   19   51 1
  37   20   21 ar
  38   21   22 ar
  39   21   52 1
  40   22   53 1
  41   25   26 1
  42   25   30 1
  43   25   35 1
  44   26   27 1
  45   26   32 1
  46   26   54 1
  47   27   28 1
  48   27   55 1
  49   27   56 1
  50   28   29 1
  51   28   57 1
  52   28   58 1
  53   29   30 1
  54   29   31 1
  55   29   59 1
  56   30   60 1
  57   30   61 1
  58   31   62 1
  59   31   63 1
  60   31   64 1
  61   32   33 1
  62   32   34 1
  63   32   65 1
  64   33   66 1
  65   33   67 1
  66   33   68 1
  67   34   69 1
  68   34   70 1
  69   34   71 1
  70   35   36 1
  71   36   37 ar
  72   36   41 ar
  73   37   38 ar
  74   37   72 1
  75   38   39 ar
  76   38   73 1
  77   39   40 ar
  78   39   74 1
  79   40   41 ar
  80   40   75 1
  81   41   76 1

#	End of record

