#	Name: ASD02039395
#	Creating user name:	WinNT
#	Creation time:	15. 06. 2019 20:18

#	Modifying user name:	WinNT
#	Modification time:	15. 06. 2019 20:18

#	Program:	/corina/corina34_cracker 3.40 0067  02.08.2006

@<TRIPOS>MOLECULE
ASD02039395
  50   52    0    0    0
SMALL
NO_CHARGES


@<TRIPOS>ATOM
   1 C1             0.0145     1.4217     0.4317 C.ar    
   2 C2             0.3170     0.0874     0.6631 C.ar    
   3 C3            -0.7100    -0.8325     0.7679 C.ar    
   4 C4            -2.2997     0.8089     0.4400 C.ar    
   5 C5            -1.3157     1.7876     0.3184 C.ar    
   6 C6            -3.7294     1.1846     0.3211 C.ar    
   7 C7             1.1093     2.4504     0.3127 C.3     
   8 N8             1.5630     2.5220    -1.0784 N.am    
   9 C9             0.8352     3.3485    -2.0446 C.3     
  10 C10            2.6499     1.8275    -1.4694 C.2     
  11 C11            3.3117     0.9052    -0.5304 C.2     
  12 C12            4.3414     0.0591    -0.8220 C.2     
  13 N13            3.0119     0.7466     0.7841 N.2     
  14 C14            3.8047    -0.1529     1.2911 C.2     
  15 N15            4.6432    -0.6009     0.3208 N.pl3   
  16 O16            3.0843     1.9623    -2.5974 O.2     
  17 C17            5.6864    -1.6168     0.4819 C.3     
  18 C18           -4.7169     0.1980     0.3350 C.ar    
  19 N19           -1.9678    -0.4585     0.6510 N.ar    
  20 C20            1.7300     4.5003    -2.5067 C.3     
  21 C21            0.4399     2.4943    -3.2508 C.3     
  22 F22           -4.3731    -1.1028     0.4569 F       
  23 C23           -4.0929     2.5243     0.2008 C.ar    
  24 C24           -5.4250     2.8685     0.0909 C.ar    
  25 C25           -6.3999     1.8872     0.1004 C.ar    
  26 C26           -6.0477     0.5557     0.2242 C.ar    
  27 C27           -5.8184     4.3175    -0.0392 C.3     
  28 H28            1.3449    -0.2296     0.7601 H       
  29 H29           -0.4778    -1.8719     0.9476 H       
  30 H30           -1.5872     2.8188     0.1470 H       
  31 H31            0.7282     3.4239     0.6211 H       
  32 H32            1.9447     2.1677     0.9532 H       
  33 H33           -0.0621     3.7514    -1.5750 H       
  34 H34            4.8233    -0.0613    -1.7810 H       
  35 H35            3.7988    -0.4868     2.3182 H       
  36 H36            5.2686    -2.6024     0.2765 H       
  37 H37            6.5006    -1.4150    -0.2141 H       
  38 H38            6.0662    -1.5888     1.5032 H       
  39 H39            2.6365     4.0975    -2.9585 H       
  40 H40            1.1956     5.1037    -3.2404 H       
  41 H41            1.9955     5.1203    -1.6504 H       
  42 H42           -0.2447     1.7087    -2.9310 H       
  43 H43           -0.0496     3.1218    -3.9957 H       
  44 H44            1.3324     2.0438    -3.6852 H       
  45 H45           -3.3335     3.2922     0.1939 H       
  46 H46           -7.4407     2.1625     0.0144 H       
  47 H47           -6.8132    -0.2061     0.2310 H       
  48 H48           -5.8480     4.5926    -1.0935 H       
  49 H49           -6.8031     4.4677     0.4034 H       
  50 H50           -5.0886     4.9400     0.4784 H       
@<TRIPOS>BOND
   1    1    2 ar
   2    1    7 1
   3    1    5 ar
   4    2    3 ar
   5    2   28 1
   6    3   19 ar
   7    3   29 1
   8    4    5 ar
   9    4    6 1
  10    4   19 ar
  11    5   30 1
  12    6   18 ar
  13    6   23 ar
  14    7    8 1
  15    7   31 1
  16    7   32 1
  17    8    9 1
  18    8   10 am
  19    9   20 1
  20    9   21 1
  21    9   33 1
  22   10   11 1
  23   10   16 2
  24   11   12 2
  25   11   13 1
  26   12   15 1
  27   12   34 1
  28   13   14 2
  29   14   15 1
  30   14   35 1
  31   15   17 1
  32   17   36 1
  33   17   37 1
  34   17   38 1
  35   18   22 1
  36   18   26 ar
  37   20   39 1
  38   20   40 1
  39   20   41 1
  40   21   42 1
  41   21   43 1
  42   21   44 1
  43   23   24 ar
  44   23   45 1
  45   24   25 ar
  46   24   27 1
  47   25   26 ar
  48   25   46 1
  49   26   47 1
  50   27   48 1
  51   27   49 1
  52   27   50 1

#	End of record

