#	Name: ASD01152537
#	Creating user name:	WinNT
#	Creation time:	15. 06. 2019 19:06

#	Modifying user name:	WinNT
#	Modification time:	15. 06. 2019 19:06

#	Program:	/corina/corina34_cracker 3.40 0067  02.08.2006

@<TRIPOS>MOLECULE
ASD01152537
  39   41    0    0    0
SMALL
NO_CHARGES


@<TRIPOS>ATOM
   1 C1             0.0180     1.2186    -0.5218 C.2     
   2 N2            -0.0458    -0.0858    -0.4901 N.2     
   3 N3            -1.1757    -0.7510    -0.0144 N.am    
   4 C4            -2.3335    -0.1186     0.2386 C.2     
   5 C5            -2.4935     1.3440    -0.1035 C.3     
   6 C6            -1.1242     1.9922    -0.0119 C.2     
   7 C7            -3.0462     1.4866    -1.5230 C.3     
   8 O8            -0.9808     3.1032     0.4553 O.2     
   9 C9            -1.1003    -2.1313     0.2075 C.ar    
  10 O10           -3.2545    -0.7246     0.7436 O.2     
  11 C11           -3.3184     2.9403    -1.8125 C.ar    
  12 C12           -2.0884    -2.9707    -0.2906 C.ar    
  13 C13           -0.0344    -2.6637     0.9212 C.ar    
  14 C14            0.0382    -4.0255     1.1386 C.ar    
  15 C15           -0.9506    -4.8602     0.6451 C.ar    
  16 C16           -2.0119    -4.3319    -0.0710 C.ar    
  17 C17           -2.3293     3.7315    -2.3663 C.ar    
  18 C18           -4.5589     3.4807    -1.5292 C.ar    
  19 C19           -4.8092     4.8137    -1.7949 C.ar    
  20 C20           -2.5783     5.0648    -2.6320 C.ar    
  21 F21           -0.8774    -6.1922     0.8584 F       
  22 C22           -3.8180     5.6075    -2.3439 C.ar    
  23 Cl23          -4.1317     7.2819    -2.6779 Cl      
  24 O24            1.1190     1.8475    -1.0105 O.3     
  25 C25            2.1847     1.0191    -1.4797 C.3     
  26 H26           -3.1716     1.8172     0.6067 H       
  27 H27           -2.3167     1.1044    -2.2371 H       
  28 H28           -3.9725     0.9190    -1.6110 H       
  29 H29           -2.9162    -2.5592    -0.8491 H       
  30 H30            0.7373    -2.0133     1.3056 H       
  31 H31            0.8669    -4.4399     1.6935 H       
  32 H32           -2.7802    -4.9849    -0.4578 H       
  33 H33           -1.3616     3.3078    -2.5912 H       
  34 H34           -5.3326     2.8610    -1.1006 H       
  35 H35           -5.7786     5.2356    -1.5742 H       
  36 H36           -1.8054     5.6829    -3.0644 H       
  37 H37            2.5436     0.3920    -0.6636 H       
  38 H38            1.8236     0.3876    -2.2914 H       
  39 H39            2.9996     1.6459    -1.8418 H       
@<TRIPOS>BOND
   1    1    2 2
   2    1   24 1
   3    1    6 1
   4    2    3 1
   5    3    4 am
   6    3    9 1
   7    4    5 1
   8    4   10 2
   9    5    6 1
  10    5    7 1
  11    5   26 1
  12    6    8 2
  13    7   11 1
  14    7   27 1
  15    7   28 1
  16    9   12 ar
  17    9   13 ar
  18   11   17 ar
  19   11   18 ar
  20   12   16 ar
  21   12   29 1
  22   13   14 ar
  23   13   30 1
  24   14   15 ar
  25   14   31 1
  26   15   16 ar
  27   15   21 1
  28   16   32 1
  29   17   20 ar
  30   17   33 1
  31   18   19 ar
  32   18   34 1
  33   19   22 ar
  34   19   35 1
  35   20   22 ar
  36   20   36 1
  37   22   23 1
  38   24   25 1
  39   25   37 1
  40   25   38 1
  41   25   39 1

#	End of record

