#	Name: ASD01918072
#	Creating user name:	WinNT
#	Creation time:	15. 06. 2019 20:10

#	Modifying user name:	WinNT
#	Modification time:	15. 06. 2019 20:10

#	Program:	/corina/corina34_cracker 3.40 0067  02.08.2006

@<TRIPOS>MOLECULE
ASD01918072
  48   51    0    0    0
SMALL
NO_CHARGES


@<TRIPOS>ATOM
   1 C1            -0.0229     1.4979     0.0323 C.3     
   2 C2            -0.0030    -0.0078     0.0104 C.2     
   3 C3             1.0839    -0.7502    -0.3152 C.2     
   4 C4             2.4195    -0.1741    -0.7032 C.3     
   5 C5             2.2210     1.3042    -1.0630 C.3     
   6 C6             1.4269     1.9996     0.0455 C.3     
   7 N7             0.7092    -2.0370    -0.2161 N.pl3   
   8 N8            -0.5299    -2.0648     0.1452 N.2     
   9 N9            -0.9807    -0.8643     0.2876 N.2     
  10 C10            1.5578    -3.2033    -0.4730 C.3     
  11 C11            1.4446     3.4891    -0.1831 C.2     
  12 N12            1.9232     4.3985     0.6314 N.2     
  13 C13            1.7238     5.5773     0.0153 C.2     
  14 N14            1.1447     5.3292    -1.1213 N.2     
  15 O15            0.9806     4.1351    -1.2571 O.3     
  16 C16            2.1018     6.9362     0.5458 C.3     
  17 C17            2.8289    -3.1055     0.3729 C.3     
  18 C18            0.7970    -4.4786    -0.1046 C.3     
  19 C19            1.9336    -3.2440    -1.9556 C.3     
  20 C20            3.4999     7.2786     0.0993 C.ar    
  21 C21            3.6997     7.9448    -1.0954 C.ar    
  22 C22            4.9812     8.2597    -1.5057 C.ar    
  23 C23            6.0653     7.9078    -0.7195 C.ar    
  24 C24            5.8640     7.2406     0.4769 C.ar    
  25 C25            4.5812     6.9314     0.8876 C.ar    
  26 F26            7.3186     8.2147    -1.1198 F       
  27 H27           -0.5328     1.8714    -0.8557 H       
  28 H28           -0.5399     1.8454     0.9268 H       
  29 H29            3.1129    -0.2586     0.1335 H       
  30 H30            2.8152    -0.7119    -1.5647 H       
  31 H31            3.1931     1.7855    -1.1700 H       
  32 H32            1.6737     1.3789    -2.0027 H       
  33 H33            1.8798     1.7755     1.0112 H       
  34 H34            1.4053     7.6823     0.1633 H       
  35 H35            2.0607     6.9254     1.6350 H       
  36 H36            2.5611    -3.0765     1.4291 H       
  37 H37            3.4602    -3.9732     0.1818 H       
  38 H38            3.3709    -2.1969     0.1105 H       
  39 H39           -0.1086    -4.5483    -0.7073 H       
  40 H40            1.4283    -5.3464    -0.2958 H       
  41 H41            0.5292    -4.4497     0.9516 H       
  42 H42            2.3990    -2.2998    -2.2384 H       
  43 H43            2.6337    -4.0609    -2.1307 H       
  44 H44            1.0360    -3.4002    -2.5538 H       
  45 H45            2.8539     8.2189    -1.7086 H       
  46 H46            5.1371     8.7798    -2.4392 H       
  47 H47            6.7088     6.9656     1.0909 H       
  48 H48            4.4236     6.4146     1.8228 H       
@<TRIPOS>BOND
   1    1    2 1
   2    1    6 1
   3    1   27 1
   4    1   28 1
   5    2    9 1
   6    2    3 2
   7    3    4 1
   8    3    7 1
   9    4    5 1
  10    4   29 1
  11    4   30 1
  12    5    6 1
  13    5   31 1
  14    5   32 1
  15    6   11 1
  16    6   33 1
  17    7    8 1
  18    7   10 1
  19    8    9 2
  20   10   17 1
  21   10   18 1
  22   10   19 1
  23   11   12 2
  24   11   15 1
  25   12   13 1
  26   13   14 2
  27   13   16 1
  28   14   15 1
  29   16   20 1
  30   16   34 1
  31   16   35 1
  32   17   36 1
  33   17   37 1
  34   17   38 1
  35   18   39 1
  36   18   40 1
  37   18   41 1
  38   19   42 1
  39   19   43 1
  40   19   44 1
  41   20   21 ar
  42   20   25 ar
  43   21   22 ar
  44   21   45 1
  45   22   23 ar
  46   22   46 1
  47   23   24 ar
  48   23   26 1
  49   24   25 ar
  50   24   47 1
  51   25   48 1

#	End of record

