#	Name: ASD09320003
#	Creating user name:	WinNT
#	Creation time:	15. 06. 2019 21:21

#	Modifying user name:	WinNT
#	Modification time:	15. 06. 2019 21:21

#	Program:	/corina/corina34_cracker 3.40 0067  02.08.2006

@<TRIPOS>MOLECULE
ASD09320003
  46   49    0    0    0
SMALL
NO_CHARGES


@<TRIPOS>ATOM
   1 C1            -0.0179     1.4693     0.0101 C.2     
   2 C2             0.0021    -0.0041     0.0020 C.2     
   3 C3             1.1499    -0.6567     0.0844 C.2     
   4 C4             1.2586     2.1856     0.0018 C.2     
   5 C5             2.4154     1.5010     0.0562 C.2     
   6 C6             3.7025     2.2189    -0.0262 C.2     
   7 C7             4.7571     1.5997    -0.9229 C.3     
   8 C8             4.8436     0.0998    -0.6182 C.3     
   9 C9             5.8629    -0.5389    -1.5697 C.3     
  10 C10            7.0956     0.4131    -1.6001 C.3     
  11 C11            6.6343     1.5695    -2.5140 C.3     
  12 C12            5.5333     1.0144    -3.3996 C.2     
  13 C13            5.3694    -0.4389    -3.0248 C.3     
  14 C14            6.2920    -1.2779    -3.9113 C.3     
  15 C15            3.9546    -0.9363    -3.2107 C.3     
  16 C16            2.9920    -0.2627    -2.2319 C.3     
  17 C17            3.4754    -0.5549    -0.8078 C.3     
  18 C18            2.4781     0.0074     0.2043 C.3     
  19 C19            3.0311    -0.3009     1.5972 C.3     
  20 O20           -1.0733     2.0777     0.0184 O.2     
  21 O21            4.9101     1.6176    -4.2399 O.2     
  22 C22            3.9252     3.3487     0.6495 C.2     
  23 H23            5.1708    -0.0425     0.4118 H       
  24 H24            3.5657    -1.6322    -0.6686 H       
  25 H25            6.1242    -1.5555    -1.2758 H       
  26 H26           -0.9247    -0.5538    -0.0712 H       
  27 H27            1.1224    -1.7361     0.0638 H       
  28 H28            1.2718     3.2643    -0.0484 H       
  29 H29            4.4803     1.7452    -1.9671 H       
  30 H30            5.7221     2.0683    -0.7296 H       
  31 H31            7.3212     0.7813    -0.5992 H       
  32 H32            7.9610    -0.0928    -2.0282 H       
  33 H33            6.2486     2.3909    -1.9101 H       
  34 H34            7.4668     1.9155    -3.1266 H       
  35 H35            6.2670    -2.3165    -3.5814 H       
  36 H36            5.9553    -1.2172    -4.9462 H       
  37 H37            7.3109    -0.8977    -3.8378 H       
  38 H38            3.6331    -0.7235    -4.2302 H       
  39 H39            3.9316    -2.0139    -3.0485 H       
  40 H40            2.9855     0.8136    -2.4044 H       
  41 H41            1.9878    -0.6638    -2.3690 H       
  42 H42            3.1354    -1.3793     1.7162 H       
  43 H43            4.0054     0.1735     1.7145 H       
  44 H44            2.3465     0.0835     2.3532 H       
  45 H45            3.1516     3.7627     1.2792 H       
  46 H46            4.8790     3.8485     0.5664 H       
@<TRIPOS>BOND
   1    1    2 1
   2    1    4 1
   3    1   20 2
   4    2    3 2
   5    2   26 1
   6    3   18 1
   7    3   27 1
   8    4    5 2
   9    4   28 1
  10    5    6 1
  11    5   18 1
  12    6    7 1
  13    6   22 2
  14    7    8 1
  15    7   29 1
  16    7   30 1
  17    8    9 1
  18    8   23 1
  19    8   17 1
  20    9   10 1
  21    9   13 1
  22    9   25 1
  23   10   11 1
  24   10   31 1
  25   10   32 1
  26   11   12 1
  27   11   33 1
  28   11   34 1
  29   12   13 1
  30   12   21 2
  31   13   14 1
  32   13   15 1
  33   14   35 1
  34   14   36 1
  35   14   37 1
  36   15   16 1
  37   15   38 1
  38   15   39 1
  39   16   17 1
  40   16   40 1
  41   16   41 1
  42   17   24 1
  43   17   18 1
  44   18   19 1
  45   19   42 1
  46   19   43 1
  47   19   44 1
  48   22   45 1
  49   22   46 1

#	End of record

