#	Name: ASD05143104
#	Creating user name:	WinNT
#	Creation time:	15. 06. 2019 20:57

#	Modifying user name:	WinNT
#	Modification time:	15. 06. 2019 20:57

#	Program:	/corina/corina34_cracker 3.40 0067  02.08.2006

@<TRIPOS>MOLECULE
ASD05143104
 147  150    0    0    0
SMALL
NO_CHARGES


@<TRIPOS>ATOM
   1 C1            -2.1087     5.3957     7.5316 C.2     
   2 C2            -1.6236     4.6575     8.7526 C.3     
   3 N3            -1.2205     5.9319     6.6712 N.am    
   4 O4            -3.2981     5.5030     7.3205 O.2     
   5 C5            -1.6921     6.6495     5.4842 C.3     
   6 C6            -2.5252     5.7055     4.6150 C.3     
   7 C7            -2.5400     7.8207     5.9091 C.2     
   8 C8            -1.6330     4.5829     4.0814 C.3     
   9 C9            -2.4661     3.6389     3.2121 C.3     
  10 N10           -1.6118     2.5640     2.7012 N.pl3   
  11 C11           -2.1441     1.5892     1.8908 C.2     
  12 N12           -1.3424     0.5805     1.4113 N.pl3   
  13 N13           -3.4088     1.6215     1.5770 N.2     
  14 O14           -3.0331     7.8421     7.0170 O.2     
  15 N15           -2.7503     8.8443     5.0580 N.am    
  16 C16           -3.5745     9.9828     5.4711 C.3     
  17 C17           -2.6718    11.1740     5.7984 C.3     
  18 C18           -1.5160    10.7098     6.6868 C.3     
  19 C19           -0.3746    10.2401     5.8223 C.2     
  20 N20            0.8924    10.6527     6.1244 N.am    
  21 C21            1.9560    10.1412     5.2303 C.3     
  22 C22            2.1066    11.1014     4.0487 C.3     
  23 C23            2.7705    10.3707     2.8798 C.3     
  24 C24            3.7291    11.3221     2.1610 C.3     
  25 N25            3.6781    11.0446     0.7115 N.am    
  26 C26            5.1315    11.1041     2.6678 C.2     
  27 N27            5.5187    11.6528     3.8364 N.am    
  28 O28            5.9117    10.4348     2.0242 O.2     
  29 C29            2.8522    11.8324    -0.0298 C.2     
  30 O30            2.2080    12.7143     0.4978 O.2     
  31 C31            2.7485    11.5955    -1.5144 C.3     
  32 N32            1.5340    12.2781    -2.0168 N.am    
  33 C33            3.9845    12.1655    -2.2133 C.3     
  34 C34            0.4810    11.4584    -2.3101 C.2     
  35 O35            0.5726    10.2580    -2.1625 O.2     
  36 C36           -0.7966    12.0740    -2.8198 C.3     
  37 N37           -1.9235    11.1810    -2.4841 N.am    
  38 C38           -1.0083    13.4373    -2.1584 C.3     
  39 C39           -3.0283    11.7692    -1.9485 C.2     
  40 O40           -3.0579    12.9672    -1.7616 O.2     
  41 C41           -4.2141    10.9104    -1.5918 C.3     
  42 C42            3.9369    11.8197    -3.6793 C.2     
  43 C43            3.2390    12.5665    -4.7286 C.ar    
  44 C44            3.4773    11.8686    -5.9264 C.ar    
  45 N45            4.2624    10.7816    -5.6139 N.pl3   
  46 C46            4.5308    10.7720    -4.2722 C.2     
  47 C47            2.4621    13.7267    -4.7408 C.ar    
  48 C48            1.9367    14.1786    -5.9183 C.ar    
  49 C49            2.1686    13.4933    -7.1031 C.ar    
  50 C50            2.9327    12.3472    -7.1139 C.ar    
  51 N51           -4.8003    11.4120    -0.3280 N.am    
  52 C52           -3.7610     9.4607    -1.4076 C.3     
  53 C53           -4.9595     8.5918    -1.1254 C.ar    
  54 C54           -5.9885     8.5144    -2.0455 C.ar    
  55 C55           -7.0878     7.7176    -1.7880 C.ar    
  56 C56           -7.1585     6.9965    -0.6081 C.ar    
  57 C57           -6.1273     7.0747     0.3125 C.ar    
  58 C58           -5.0265     7.8681     0.0506 C.ar    
  59 C59           -4.5125    10.3563     4.3520 C.2     
  60 O60           -5.7108    10.2244     4.4839 O.2     
  61 C61           -1.0189    13.2701    -0.6376 C.3     
  62 C62           -1.3773    14.6045     0.0197 C.3     
  63 N63           -1.3875    14.4444     1.4759 N.pl3   
  64 C64           -1.6851    15.5167     2.2832 C.2     
  65 N65           -1.6947    15.3664     3.6498 N.pl3   
  66 N66           -1.9583    16.6756     1.7531 N.2     
  67 N67           -3.9951    10.8435     3.1908 N.am    
  68 C68           -4.9625    11.1924     2.1313 C.3     
  69 C69           -4.4074    10.7515     0.8015 C.2     
  70 O70           -3.6259     9.8264     0.7351 O.2     
  71 C71           -5.1843    12.7062     2.1178 C.3     
  72 C72           -5.8480    13.1361     3.4276 C.3     
  73 C73           -6.0665    14.6271     3.4143 C.2     
  74 F74           -8.2329     6.2175    -0.3552 F       
  75 N75           -6.6414    15.2334     4.4718 N.am    
  76 O76           -5.7249    15.2814     2.4520 O.2     
  77 O77           -0.5768     9.5090     4.8760 O.2     
  78 H78           -0.5338     4.6610     8.7701 H       
  79 H79           -2.0030     5.1487     9.6486 H       
  80 H80           -1.9833     3.6290     8.7220 H       
  81 H81           -0.2692     5.8426     6.8379 H       
  82 H82           -0.8361     7.0089     4.9130 H       
  83 H83           -3.3301     5.2771     5.2122 H       
  84 H84           -2.9494     6.2611     3.7786 H       
  85 H85           -0.8280     5.0113     3.4842 H       
  86 H86           -1.2088     4.0273     4.9177 H       
  87 H87           -3.2711     3.2105     3.8093 H       
  88 H88           -2.8903     4.1945     2.3758 H       
  89 H89           -0.6707     2.5400     2.9347 H       
  90 H90           -0.4012     0.5565     1.6449 H       
  91 H91           -1.7179    -0.1072     0.8396 H       
  92 H92           -3.7843     0.9338     1.0052 H       
  93 H93           -2.3559     8.8272     4.1720 H       
  94 H94           -4.1526     9.7114     6.3544 H       
  95 H95           -2.2740    11.5930     4.8742 H       
  96 H96           -3.2501    11.9347     6.3227 H       
  97 H97           -1.1819    11.5388     7.3108 H       
  98 H98           -1.8522     9.8900     7.3215 H       
  99 H99            1.0819    11.2402     6.8726 H       
 100 H100           2.8972    10.0838     5.7771 H       
 101 H101           1.6818     9.1516     4.8646 H       
 102 H102           1.1232    11.4582     3.7427 H       
 103 H103           2.7246    11.9488     4.3455 H       
 104 H104           3.3257     9.5117     3.2566 H       
 105 H105           2.0051    10.0307     2.1821 H       
 106 H106           3.4279    12.3531     2.3463 H       
 107 H107           4.2056    10.3372     0.3086 H       
 108 H108           4.8946    12.1881     4.3511 H       
 109 H109           6.4213    11.5125     4.1626 H       
 110 H110           2.6747    10.5258    -1.7101 H       
 111 H111           1.4893    13.2404    -2.1302 H       
 112 H112           4.0009    13.2491    -2.0959 H       
 113 H113           4.8830    11.7382    -1.7681 H       
 114 H114          -0.7371    12.1961    -3.9014 H       
 115 H115          -1.8788    10.2241    -2.6370 H       
 116 H116          -0.1993    14.1094    -2.4444 H       
 117 H117          -1.9606    13.8555    -2.4846 H       
 118 H118          -4.9577    10.9652    -2.3869 H       
 119 H119           4.5809    10.1228    -6.2506 H       
 120 H120           5.1259    10.0275    -3.7643 H       
 121 H121           2.2769    14.2646    -3.8228 H       
 122 H122           1.3359    15.0760    -5.9273 H       
 123 H123           1.7462    13.8628    -8.0259 H       
 124 H124           3.1077    11.8213    -8.0408 H       
 125 H125          -5.4200    12.1579    -0.3037 H       
 126 H126          -3.2680     9.1158    -2.3165 H       
 127 H127          -3.0643     9.4013    -0.5714 H       
 128 H128          -5.9333     9.0773    -2.9655 H       
 129 H129          -7.8917     7.6576    -2.5067 H       
 130 H130          -6.1813     6.5127     1.2332 H       
 131 H131          -4.2221     7.9293     0.7686 H       
 132 H132          -1.7577    12.5183    -0.3599 H       
 133 H133          -0.0325    12.9522    -0.3001 H       
 134 H134          -0.6386    15.3563    -0.2580 H       
 135 H135          -2.3638    14.9224    -0.3178 H       
 136 H136          -1.1842    13.5819     1.8704 H       
 137 H137          -1.4915    14.5039     4.0444 H       
 138 H138          -1.9047    16.1230     4.2195 H       
 139 H139          -2.1683    17.4322     2.3227 H       
 140 H140          -3.0398    10.9559     3.0660 H       
 141 H141          -5.9085    10.6844     2.3187 H       
 142 H142          -4.2250    13.2130     2.0131 H       
 143 H143          -5.8288    12.9715     1.2797 H       
 144 H144          -6.8073    12.6292     3.5322 H       
 145 H145          -5.2036    12.8707     4.2656 H       
 146 H146          -6.9145    14.7100     5.2415 H       
 147 H147          -6.7820    16.1931     4.4632 H       
@<TRIPOS>BOND
   1    1    2 1
   2    1    3 am
   3    1    4 2
   4    2   78 1
   5    2   79 1
   6    2   80 1
   7    3    5 1
   8    3   81 1
   9    5    6 1
  10    5    7 1
  11    5   82 1
  12    6    8 1
  13    6   83 1
  14    6   84 1
  15    7   14 2
  16    7   15 am
  17    8    9 1
  18    8   85 1
  19    8   86 1
  20    9   10 1
  21    9   87 1
  22    9   88 1
  23   10   11 1
  24   10   89 1
  25   11   12 1
  26   11   13 2
  27   12   90 1
  28   12   91 1
  29   13   92 1
  30   15   16 1
  31   15   93 1
  32   16   17 1
  33   16   59 1
  34   16   94 1
  35   17   18 1
  36   17   95 1
  37   17   96 1
  38   18   19 1
  39   18   97 1
  40   18   98 1
  41   19   20 am
  42   19   77 2
  43   20   21 1
  44   20   99 1
  45   21   22 1
  46   21  100 1
  47   21  101 1
  48   22   23 1
  49   22  102 1
  50   22  103 1
  51   23   24 1
  52   23  104 1
  53   23  105 1
  54   24   25 1
  55   24   26 1
  56   24  106 1
  57   25   29 am
  58   25  107 1
  59   26   27 am
  60   26   28 2
  61   27  108 1
  62   27  109 1
  63   29   30 2
  64   29   31 1
  65   31   32 1
  66   31   33 1
  67   31  110 1
  68   32   34 am
  69   32  111 1
  70   33   42 1
  71   33  112 1
  72   33  113 1
  73   34   35 2
  74   34   36 1
  75   36   37 1
  76   36   38 1
  77   36  114 1
  78   37   39 am
  79   37  115 1
  80   38   61 1
  81   38  116 1
  82   38  117 1
  83   39   40 2
  84   39   41 1
  85   41   51 1
  86   41   52 1
  87   41  118 1
  88   42   43 1
  89   42   46 2
  90   43   44 ar
  91   43   47 ar
  92   44   45 1
  93   44   50 ar
  94   45   46 1
  95   45  119 1
  96   46  120 1
  97   47   48 ar
  98   47  121 1
  99   48   49 ar
 100   48  122 1
 101   49   50 ar
 102   49  123 1
 103   50  124 1
 104   51   69 am
 105   51  125 1
 106   52   53 1
 107   52  126 1
 108   52  127 1
 109   53   54 ar
 110   53   58 ar
 111   54   55 ar
 112   54  128 1
 113   55   56 ar
 114   55  129 1
 115   56   57 ar
 116   56   74 1
 117   57   58 ar
 118   57  130 1
 119   58  131 1
 120   59   60 2
 121   59   67 am
 122   61   62 1
 123   61  132 1
 124   61  133 1
 125   62   63 1
 126   62  134 1
 127   62  135 1
 128   63   64 1
 129   63  136 1
 130   64   65 1
 131   64   66 2
 132   65  137 1
 133   65  138 1
 134   66  139 1
 135   67   68 1
 136   67  140 1
 137   68   69 1
 138   68   71 1
 139   68  141 1
 140   69   70 2
 141   71   72 1
 142   71  142 1
 143   71  143 1
 144   72   73 1
 145   72  144 1
 146   72  145 1
 147   73   75 am
 148   73   76 2
 149   75  146 1
 150   75  147 1

#	End of record

