#	Name: ASD00170171
#	Creating user name:	WinNT
#	Creation time:	15. 06. 2019 18:31

#	Modifying user name:	WinNT
#	Modification time:	15. 06. 2019 18:31

#	Program:	/corina/corina34_cracker 3.40 0067  02.08.2006

@<TRIPOS>MOLECULE
ASD00170171
  30   32    0    0    0
SMALL
NO_CHARGES


@<TRIPOS>ATOM
   1 C1            -0.0268     1.3320    -0.1410 C.2     
   2 C2            -0.0037     0.0042    -0.1778 C.2     
   3 C3            -1.3277    -0.5834     0.0178 C.2     
   4 C4            -2.3110     0.3519     0.1971 C.2     
   5 S5            -1.6640     1.9238     0.1397 S.3     
   6 N6            -3.6441     0.0593     0.4014 N.pl3   
   7 C7            -1.5768    -2.0247     0.0210 C.2     
   8 C8            -1.8235    -2.7354    -1.2523 C.ar    
   9 C9             1.3743     1.8951    -0.3490 C.3     
  10 C10            2.3220     0.7096    -0.0765 C.3     
  11 C11            1.4194    -0.4932    -0.4162 C.3     
  12 O12           -1.5809    -2.6395     1.0722 O.2     
  13 C13           -1.9548    -4.1251    -1.2651 C.ar    
  14 C14           -2.1853    -4.7822    -2.4555 C.ar    
  15 C15           -2.2861    -4.0662    -3.6366 C.ar    
  16 C16           -2.1562    -2.6875    -3.6303 C.ar    
  17 C17           -1.9318    -2.0186    -2.4453 C.ar    
  18 Br18          -2.6016    -4.9748    -5.2646 Br      
  19 H19           -3.9529    -0.8587     0.3482 H       
  20 H20           -4.2724     0.7716     0.5982 H       
  21 H21            1.4930     2.2477    -1.3735 H       
  22 H22            1.5664     2.7039     0.3559 H       
  23 H23            3.1904     0.7445    -0.7344 H       
  24 H24            2.6272     0.6860     0.9697 H       
  25 H25            1.6428    -1.3327     0.2422 H       
  26 H26            1.5501    -0.7828    -1.4588 H       
  27 H27           -1.8757    -4.6847    -0.3447 H       
  28 H28           -2.2871    -5.8573    -2.4668 H       
  29 H29           -2.2354    -2.1345    -4.5546 H       
  30 H30           -1.8310    -0.9434    -2.4416 H       
@<TRIPOS>BOND
   1    1    2 2
   2    1    9 1
   3    1    5 1
   4    2    3 1
   5    2   11 1
   6    3    4 2
   7    3    7 1
   8    4    5 1
   9    4    6 1
  10    6   19 1
  11    6   20 1
  12    7    8 1
  13    7   12 2
  14    8   13 ar
  15    8   17 ar
  16    9   10 1
  17    9   21 1
  18    9   22 1
  19   10   11 1
  20   10   23 1
  21   10   24 1
  22   11   25 1
  23   11   26 1
  24   13   14 ar
  25   13   27 1
  26   14   15 ar
  27   14   28 1
  28   15   16 ar
  29   15   18 1
  30   16   17 ar
  31   16   29 1
  32   17   30 1

#	End of record

