#	Name: ASD04591137
#	Creating user name:	WinNT
#	Creation time:	15. 06. 2019 20:52

#	Modifying user name:	WinNT
#	Modification time:	15. 06. 2019 20:52

#	Program:	/corina/corina34_cracker 3.40 0067  02.08.2006

@<TRIPOS>MOLECULE
ASD04591137
  60   65    0    0    0
SMALL
NO_CHARGES


@<TRIPOS>ATOM
   1 N1            -0.0171     1.3232    -0.0119 N.ar    
   2 C2             0.0017    -0.0035    -0.0051 C.ar    
   3 N3             1.1298    -0.6949    -0.0118 N.ar    
   4 C4             2.3050    -0.0728    -0.0262 C.ar    
   5 C5             2.3189     1.3366    -0.0341 C.ar    
   6 C6             1.1072     2.0202    -0.0261 C.ar    
   7 N7             3.6031    -0.5195    -0.0358 N.pl3   
   8 C8             4.4823     0.5495    -0.0498 C.ar    
   9 C9             3.7312     1.7385    -0.0494 C.ar    
  10 C10            5.8680     0.6418    -0.0632 C.ar    
  11 N11            6.4613     1.8181    -0.0753 N.ar    
  12 C12            5.7850     2.9533    -0.0752 C.ar    
  13 C13            4.4064     2.9585    -0.0621 C.ar    
  14 N14           -1.2019    -0.6887     0.0098 N.pl3   
  15 C15           -2.4019     0.0120     0.1303 C.ar    
  16 C16            4.0018    -1.9292    -0.0312 C.3     
  17 N17           -2.3783     1.3196     0.3309 N.ar    
  18 C18           -3.4885     2.0229     0.4509 C.ar    
  19 C19           -4.7291     1.4087     0.3703 C.ar    
  20 C20           -4.7935     0.0321     0.1596 C.ar    
  21 C21           -3.6094    -0.6709     0.0326 C.ar    
  22 N22           -5.9023     2.1615     0.4995 N.pl3   
  23 C23           -5.8241     3.6075     0.7212 C.3     
  24 C24            3.4004    -2.6445     1.1962 C.3     
  25 C25            3.4384    -2.6403    -1.2741 C.3     
  26 C26            2.5144    -3.7629    -0.7586 C.3     
  27 C27            2.1010    -3.2939     0.6586 C.3     
  28 C28           -7.1096     4.2721     0.2209 C.3     
  29 C29           -7.0478     5.7736     0.5104 C.3     
  30 N30           -6.8943     5.9890     1.9549 N.3     
  31 C31           -5.6432     5.4003     2.4495 C.3     
  32 C32           -5.6631     3.8877     2.2179 C.3     
  33 H33            1.0848     3.1000    -0.0322 H       
  34 H34            6.4645    -0.2585    -0.0634 H       
  35 H35            6.3203     3.8912    -0.0851 H       
  36 H36            3.8597     3.8899    -0.0625 H       
  37 H37           -1.2103    -1.6559    -0.0635 H       
  38 H38            5.0887    -2.0095    -0.0157 H       
  39 H39           -3.4301     3.0889     0.6140 H       
  40 H40           -5.7459    -0.4729     0.0926 H       
  41 H41           -3.6221    -1.7382    -0.1317 H       
  42 H42           -6.7670     1.7256     0.4421 H       
  43 H43           -4.9697     4.0133     0.1797 H       
  44 H44            4.0843    -3.4087     1.5654 H       
  45 H45            3.1704    -1.9252     1.9822 H       
  46 H46            2.8684    -1.9365    -1.8806 H       
  47 H47            4.2519    -3.0664    -1.8613 H       
  48 H48            1.6378    -3.8597    -1.3991 H       
  49 H49            3.0552    -4.7077    -0.7051 H       
  50 H50            1.8091    -4.1429     1.2766 H       
  51 H51            1.2968    -2.5602     0.6034 H       
  52 H52           -7.2079     4.1123    -0.8528 H       
  53 H53           -7.9675     3.8376     0.7341 H       
  54 H54           -6.1978     6.2099    -0.0142 H       
  55 H55           -7.9678     6.2476     0.1683 H       
  56 H56           -6.9464     6.9708     2.1816 H       
  57 H57           -4.7998     5.8383     1.9158 H       
  58 H58           -5.5431     5.6031     3.5158 H       
  59 H59           -6.4982     3.4471     2.7625 H       
  60 H60           -4.7279     3.4531     2.5709 H       
@<TRIPOS>BOND
   1    1    2 ar
   2    1    6 ar
   3    2    3 ar
   4    2   14 1
   5    3    4 ar
   6    4    5 ar
   7    4    7 1
   8    5    6 ar
   9    5    9 1
  10    6   33 1
  11    7    8 1
  12    7   16 1
  13    8    9 ar
  14    8   10 ar
  15    9   13 ar
  16   10   11 ar
  17   10   34 1
  18   11   12 ar
  19   12   13 ar
  20   12   35 1
  21   13   36 1
  22   14   15 1
  23   14   37 1
  24   15   17 ar
  25   15   21 ar
  26   16   25 1
  27   16   24 1
  28   16   38 1
  29   17   18 ar
  30   18   19 ar
  31   18   39 1
  32   19   20 ar
  33   19   22 1
  34   20   21 ar
  35   20   40 1
  36   21   41 1
  37   22   23 1
  38   22   42 1
  39   23   28 1
  40   23   32 1
  41   23   43 1
  42   24   27 1
  43   24   44 1
  44   24   45 1
  45   25   26 1
  46   25   46 1
  47   25   47 1
  48   26   27 1
  49   26   48 1
  50   26   49 1
  51   27   50 1
  52   27   51 1
  53   28   29 1
  54   28   52 1
  55   28   53 1
  56   29   30 1
  57   29   54 1
  58   29   55 1
  59   30   31 1
  60   30   56 1
  61   31   32 1
  62   31   57 1
  63   31   58 1
  64   32   59 1
  65   32   60 1

#	End of record

