#	Name: ASD07930408
#	Creating user name:	WinNT
#	Creation time:	15. 06. 2019 21:12

#	Modifying user name:	WinNT
#	Modification time:	15. 06. 2019 21:12

#	Program:	/corina/corina34_cracker 3.40 0067  02.08.2006

@<TRIPOS>MOLECULE
ASD07930408
  45   47    0    0    0
SMALL
NO_CHARGES


@<TRIPOS>ATOM
   1 N1             1.9372    -2.8812    -0.4252 N.2     
   2 N2            -0.3256    -2.8520    -1.0086 N.pl3   
   3 C3            -1.3637    -1.8165    -0.9741 C.3     
   4 C4            -1.3746    -1.0660    -2.3130 C.3     
   5 S5             0.2938    -0.3999    -2.6080 S.o2    
   6 N6             1.2691    -1.7266    -2.3524 N.am    
   7 C7             0.9894    -2.5001    -1.2347 C.2     
   8 C8             2.3672    -2.0602    -3.2628 C.3     
   9 C9            -1.0672    -0.8335     0.1602 C.3     
  10 C10           -2.7077    -2.4588    -0.7461 C.ar    
  11 C11           -3.1981    -3.3780    -1.6578 C.ar    
  12 C12           -4.4328    -3.9706    -1.4513 C.ar    
  13 C13           -5.1784    -3.6445    -0.3336 C.ar    
  14 C14           -4.6866    -2.7210     0.5830 C.ar    
  15 C15           -3.4465    -2.1337     0.3754 C.ar    
  16 O16            0.4746    -0.0827    -3.9813 O.2     
  17 O17            0.6597     0.5153    -1.5845 O.2     
  18 F18           -2.4713    -3.6973    -2.7510 F       
  19 F19           -6.3832    -4.2216    -0.1322 F       
  20 N20           -5.4394    -2.3883     1.7162 N.am    
  21 C21           -4.8181    -2.0977     2.8764 C.2     
  22 O22           -3.6113    -2.2115     2.9646 O.2     
  23 C23           -5.6062    -1.6395     4.0440 C.ar    
  24 N24           -6.9238    -1.5171     3.9415 N.ar    
  25 C25           -7.6601    -1.1140     4.9541 C.ar    
  26 C26           -7.0823    -0.7997     6.1735 C.ar    
  27 C27           -5.7089    -0.9135     6.3243 C.ar    
  28 C28           -4.9587    -1.3461     5.2423 C.ar    
  29 H29            2.8562    -2.6243    -0.5994 H       
  30 H30           -0.5624    -3.7822    -0.8687 H       
  31 H31           -1.6439    -1.7517    -3.1164 H       
  32 H32           -2.0943    -0.2486    -2.2702 H       
  33 H33            3.2791    -1.5650    -2.9290 H       
  34 H34            2.5206    -3.1394    -3.2671 H       
  35 H35            2.1192    -1.7245    -4.2697 H       
  36 H36           -0.0957    -0.3682    -0.0068 H       
  37 H37           -1.8390    -0.0642     0.1854 H       
  38 H38           -1.0556    -1.3677     1.1103 H       
  39 H39           -4.8135    -4.6875    -2.1638 H       
  40 H40           -3.0626    -1.4167     1.0860 H       
  41 H41           -6.4078    -2.3672     1.6661 H       
  42 H42           -8.7298    -1.0265     4.8333 H       
  43 H43           -7.6958    -0.4690     6.9985 H       
  44 H44           -5.2348    -0.6741     7.2646 H       
  45 H45           -3.8866    -1.4466     5.3244 H       
@<TRIPOS>BOND
   1    1    7 2
   2    1   29 1
   3    2    3 1
   4    2    7 1
   5    2   30 1
   6    3    4 1
   7    3    9 1
   8    3   10 1
   9    4    5 1
  10    4   31 1
  11    4   32 1
  12    5    6 am
  13    5   16 2
  14    5   17 2
  15    6    7 1
  16    6    8 1
  17    8   33 1
  18    8   34 1
  19    8   35 1
  20    9   36 1
  21    9   37 1
  22    9   38 1
  23   10   11 ar
  24   10   15 ar
  25   11   12 ar
  26   11   18 1
  27   12   13 ar
  28   12   39 1
  29   13   14 ar
  30   13   19 1
  31   14   15 ar
  32   14   20 1
  33   15   40 1
  34   20   21 am
  35   20   41 1
  36   21   22 2
  37   21   23 1
  38   23   24 ar
  39   23   28 ar
  40   24   25 ar
  41   25   26 ar
  42   25   42 1
  43   26   27 ar
  44   26   43 1
  45   27   28 ar
  46   27   44 1
  47   28   45 1

#	End of record

