#	Name: ASD05730165
#	Creating user name:	WinNT
#	Creation time:	15. 06. 2019 21:02

#	Modifying user name:	WinNT
#	Modification time:	15. 06. 2019 21:02

#	Program:	/corina/corina34_cracker 3.40 0067  02.08.2006

@<TRIPOS>MOLECULE
ASD05730165
  32   34    0    0    0
SMALL
NO_CHARGES


@<TRIPOS>ATOM
   1 O1            -0.4525     1.3266    -0.1571 O.3     
   2 O2             0.6779    -0.5702    -0.2460 O.2     
   3 O3            -1.2163    -4.4320     3.6752 O.2     
   4 N4            -1.4094    -2.7292     1.3444 N.pl3   
   5 C5            -1.6531    -0.8261    -0.0161 C.3     
   6 C6            -2.3543    -0.5206     1.3262 C.3     
   7 C7            -1.7800    -1.6222     2.2418 C.3     
   8 C8            -1.3272    -2.3048     0.0614 C.2     
   9 C9            -1.1083    -4.0780     1.3790 C.2     
  10 C10           -0.9793    -3.3551    -0.7291 C.2     
  11 C11           -0.8401    -4.4790     0.0861 C.2     
  12 C12           -0.3904    -0.0142    -0.1482 C.2     
  13 C13           -1.0788    -4.9273     2.5718 C.2     
  14 C14           -0.8820    -6.3867     2.4357 C.ar    
  15 C15           -0.2669    -7.1097     3.4594 C.ar    
  16 C16           -1.3157    -7.0484     1.2854 C.ar    
  17 C17           -0.0868    -8.4709     3.3262 C.ar    
  18 C18           -1.1294    -8.4099     1.1650 C.ar    
  19 C19           -0.5139    -9.1196     2.1810 C.ar    
  20 H20           -2.3247    -0.6269    -0.8512 H       
  21 H21           -2.0831     0.4701     1.6910 H       
  22 H22           -3.4359    -0.6170     1.2318 H       
  23 H23           -2.5360    -1.9519     2.9545 H       
  24 H24           -0.8999    -1.2535     2.7686 H       
  25 H25           -0.8363    -3.3248    -1.7991 H       
  26 H26           -0.5691    -5.4743    -0.2339 H       
  27 H27            0.3838     1.8042    -0.2438 H       
  28 H28            0.0675    -6.6045     4.3534 H       
  29 H29           -1.7962    -6.4956     0.4917 H       
  30 H30            0.3889    -9.0314     4.1174 H       
  31 H31           -1.4644    -8.9230     0.2757 H       
  32 H32           -0.3699   -10.1853     2.0815 H       
@<TRIPOS>BOND
   1    1   12 1
   2    1   27 1
   3    2   12 2
   4    3   13 2
   5    4    7 1
   6    4    8 1
   7    4    9 1
   8    5    6 1
   9    5    8 1
  10    5   12 1
  11    5   20 1
  12    6    7 1
  13    6   21 1
  14    6   22 1
  15    7   23 1
  16    7   24 1
  17    8   10 2
  18    9   11 2
  19    9   13 1
  20   10   11 1
  21   10   25 1
  22   11   26 1
  23   13   14 1
  24   14   15 ar
  25   14   16 ar
  26   15   17 ar
  27   15   28 1
  28   16   18 ar
  29   16   29 1
  30   17   19 ar
  31   17   30 1
  32   18   19 ar
  33   18   31 1
  34   19   32 1

#	End of record

