#	Name: ASD01901220
#	Creating user name:	WinNT
#	Creation time:	15. 06. 2019 19:53

#	Modifying user name:	WinNT
#	Modification time:	15. 06. 2019 19:53

#	Program:	/corina/corina34_cracker 3.40 0067  02.08.2006

@<TRIPOS>MOLECULE
ASD01901220
  29   31    0    0    0
SMALL
NO_CHARGES


@<TRIPOS>ATOM
   1 C1            -0.0167     1.3802     0.0096 C.ar    
   2 C2             0.0021    -0.0041     0.0020 C.ar    
   3 C3             1.2023    -0.6821    -0.0131 C.ar    
   4 C4             2.4052     0.0321    -0.0207 C.ar    
   5 C5             2.3789     1.4334    -0.0129 C.ar    
   6 C6             1.1670     2.0963     0.0022 C.ar    
   7 C7             3.6563    -0.6646    -0.0359 C.1     
   8 C8             4.6819    -1.2358    -0.0483 C.1     
   9 C9             5.9329    -1.9325    -0.0635 C.2     
  10 C10            7.2516    -1.2346    -0.0723 C.3     
  11 C11            8.1362    -2.0028     0.9596 C.3     
  12 N12            8.3610    -3.3184     0.4171 N.2     
  13 C13            7.2991    -3.9296    -0.0650 C.2     
  14 C14            6.0263    -3.3064    -0.0654 C.2     
  15 F15            3.5344     2.1333    -0.0197 F       
  16 N16            9.2116    -1.0293     1.0837 N.pl3   
  17 C17            8.5327     0.2072     1.1238 C.2     
  18 C18            7.3636     0.1524     0.4747 C.2     
  19 H19           -0.9610     1.9042     0.0169 H       
  20 H20           -0.9269    -0.5548     0.0083 H       
  21 H21            1.2139    -1.7620    -0.0186 H       
  22 H22            1.1435     3.1760     0.0078 H       
  23 H23            7.6980    -1.2944    -1.0649 H       
  24 H24            7.6069    -2.0826     1.9091 H       
  25 H25            7.4003    -4.9277    -0.4650 H       
  26 H26            5.1299    -3.9088    -0.0705 H       
  27 H27           10.1669    -1.1919     1.1283 H       
  28 H28            8.9102     1.0899     1.6185 H       
  29 H29            6.6443     0.9509     0.3674 H       
@<TRIPOS>BOND
   1    1    2 ar
   2    1    6 ar
   3    1   19 1
   4    2    3 ar
   5    2   20 1
   6    3    4 ar
   7    3   21 1
   8    4    5 ar
   9    4    7 1
  10    5    6 ar
  11    5   15 1
  12    6   22 1
  13    7    8 3
  14    8    9 1
  15    9   10 1
  16    9   14 2
  17   10   11 1
  18   10   18 1
  19   10   23 1
  20   11   12 1
  21   11   16 1
  22   11   24 1
  23   12   13 2
  24   13   14 1
  25   13   25 1
  26   14   26 1
  27   16   17 1
  28   16   27 1
  29   17   18 2
  30   17   28 1
  31   18   29 1

#	End of record

