#	Name: ASD01028219
#	Creating user name:	WinNT
#	Creation time:	15. 06. 2019 18:56

#	Modifying user name:	WinNT
#	Modification time:	15. 06. 2019 18:56

#	Program:	/corina/corina34_cracker 3.40 0067  02.08.2006

@<TRIPOS>MOLECULE
ASD01028219
  58   63    0    0    0
SMALL
NO_CHARGES


@<TRIPOS>ATOM
   1 C1             0.7431    -3.2443     0.3788 C.ar    
   2 C2             1.5905    -4.3134     0.1979 C.ar    
   3 C3             1.2397    -1.9381     0.4270 C.ar    
   4 C4             2.5718    -1.6947     0.2961 C.ar    
   5 C5             3.4620    -2.7632     0.1104 C.ar    
   6 C6             2.9701    -4.0900     0.0600 C.ar    
   7 C7             4.8509    -2.5438    -0.0292 C.ar    
   8 C8             5.6671    -3.6463    -0.2098 C.ar    
   9 C9             5.1090    -4.9177    -0.2483 C.ar    
  10 N10            3.8175    -5.1105    -0.1171 N.ar    
  11 O11            5.3680    -1.2911     0.0120 O.3     
  12 C12            6.7837    -1.1683    -0.1383 C.3     
  13 C13            7.1722     0.2860    -0.0665 C.2     
  14 N14            7.5015     0.9733     1.0556 N.pl3   
  15 C15            7.7806     2.2556     0.6448 C.2     
  16 N16            7.6121     2.2827    -0.6668 N.2     
  17 N17            7.2589     1.1149    -1.0770 N.2     
  18 N18            7.5941     0.6344     2.4068 N.2     
  19 C19            7.9485     1.5366     3.2980 C.2     
  20 C20            8.2415     2.8622     2.9064 C.2     
  21 C21            8.1596     3.2200     1.5984 C.2     
  22 C22            8.0403     1.1587     4.7237 C.2     
  23 O23           -0.5919    -3.4601     0.5065 O.3     
  24 C24           -1.4200    -2.3104     0.6920 C.3     
  25 C25            7.7832    -0.0839     5.2251 C.2     
  26 C26            7.9348    -0.1982     6.5802 C.2     
  27 C27            8.3193     0.9511     7.2111 C.2     
  28 S28            8.5049     2.2404     6.0298 S.3     
  29 C29            8.5480     1.0873     8.6530 C.2     
  30 O30            7.7718     0.5822     9.4425 O.2     
  31 N31            9.6178     1.7719     9.1039 N.am    
  32 C32           10.6363     2.2844     8.1737 C.3     
  33 C33           10.8690     3.7681     8.4811 C.3     
  34 O34           11.1473     3.9219     9.8749 O.3     
  35 C35           10.0750     3.5254    10.7331 C.3     
  36 C36            9.7987     2.0342    10.5405 C.3     
  37 H37            1.1969    -5.3185     0.1624 H       
  38 H38            0.5578    -1.1128     0.5695 H       
  39 H39            2.9432    -0.6812     0.3347 H       
  40 H40            6.7338    -3.5188    -0.3207 H       
  41 H41            5.7557    -5.7710    -0.3898 H       
  42 H42            7.2829    -1.7175     0.6599 H       
  43 H43            7.0834    -1.5772    -1.1032 H       
  44 H44            8.5309     3.5921     3.6479 H       
  45 H45            8.3824     4.2319     1.2936 H       
  46 H46           -1.1194    -1.7889     1.6007 H       
  47 H47           -1.3117    -1.6428    -0.1628 H       
  48 H48           -2.4607    -2.6225     0.7796 H       
  49 H49            7.4829    -0.9126     4.6010 H       
  50 H50            7.7638    -1.1239     7.1095 H       
  51 H51           11.5663     1.7317     8.3066 H       
  52 H52           10.2857     2.1727     7.1476 H       
  53 H53           11.7152     4.1322     7.8984 H       
  54 H54            9.9763     4.3377     8.2230 H       
  55 H55           10.3499     3.7150    11.7707 H       
  56 H56            9.1793     4.0942    10.4833 H       
  57 H57            8.8952     1.7552    11.0828 H       
  58 H58           10.6436     1.4535    10.9106 H       
@<TRIPOS>BOND
   1    1    2 ar
   2    1    3 ar
   3    1   23 1
   4    2    6 ar
   5    2   37 1
   6    3    4 ar
   7    3   38 1
   8    4    5 ar
   9    4   39 1
  10    5    6 ar
  11    5    7 ar
  12    6   10 ar
  13    7    8 ar
  14    7   11 1
  15    8    9 ar
  16    8   40 1
  17    9   10 ar
  18    9   41 1
  19   11   12 1
  20   12   13 1
  21   12   42 1
  22   12   43 1
  23   13   14 1
  24   13   17 2
  25   14   15 1
  26   14   18 1
  27   15   16 2
  28   15   21 1
  29   16   17 1
  30   18   19 2
  31   19   20 1
  32   19   22 1
  33   20   21 2
  34   20   44 1
  35   21   45 1
  36   22   25 2
  37   22   28 1
  38   23   24 1
  39   24   46 1
  40   24   47 1
  41   24   48 1
  42   25   26 1
  43   25   49 1
  44   26   27 2
  45   26   50 1
  46   27   28 1
  47   27   29 1
  48   29   30 2
  49   29   31 am
  50   31   32 1
  51   31   36 1
  52   32   33 1
  53   32   51 1
  54   32   52 1
  55   33   34 1
  56   33   53 1
  57   33   54 1
  58   34   35 1
  59   35   36 1
  60   35   55 1
  61   35   56 1
  62   36   57 1
  63   36   58 1

#	End of record

