#	Name: ASD01901044
#	Creating user name:	WinNT
#	Creation time:	15. 06. 2019 19:53

#	Modifying user name:	WinNT
#	Modification time:	15. 06. 2019 19:53

#	Program:	/corina/corina34_cracker 3.40 0067  02.08.2006

@<TRIPOS>MOLECULE
ASD01901044
  43   45    0    0    0
SMALL
NO_CHARGES


@<TRIPOS>ATOM
   1 C1             0.8140     2.4979    -0.1110 C.ar    
   2 C2             1.9651     2.8196     0.6050 C.ar    
   3 C3             3.1022     2.0461     0.4341 C.ar    
   4 C4             3.0487     0.9774    -0.4473 C.ar    
   5 C5             1.8698     0.7153    -1.1264 C.ar    
   6 N6             0.8049     1.4657    -0.9455 N.ar    
   7 C7            -0.4117     3.3109     0.0650 C.2     
   8 O8            -0.4104     4.2540     0.8314 O.2     
   9 N9            -1.5283     3.0047    -0.6249 N.am    
  10 C10           -2.7121     3.7103    -0.3880 C.ar    
  11 C11           -2.6660     5.0649    -0.0843 C.ar    
  12 C12           -3.8370     5.7590     0.1486 C.ar    
  13 C13           -5.0544     5.1067     0.0802 C.ar    
  14 C14           -5.1038     3.7582    -0.2220 C.ar    
  15 C15           -3.9369     3.0595    -0.4616 C.ar    
  16 S16           -6.5460     5.9958     0.3792 S.o2    
  17 O17           -7.5372     5.0249     0.6860 O.2     
  18 O18           -6.2080     7.0643     1.2529 O.2     
  19 N19           -6.9990     6.6896    -1.0546 N.am    
  20 C20           -6.1633     7.6226    -1.6742 C.ar    
  21 C21           -5.9060     7.5301    -3.0362 C.ar    
  22 C22           -5.0798     8.4535    -3.6457 C.ar    
  23 C23           -4.5082     9.4704    -2.9010 C.ar    
  24 C24           -4.7622     9.5647    -1.5442 C.ar    
  25 C25           -5.5929     8.6474    -0.9305 C.ar    
  26 C26           -4.7999     8.3535    -5.1231 C.3     
  27 F27           -5.4830     7.2540    -5.6538 F       
  28 F28           -5.2314     9.5221    -5.7597 F       
  29 F29           -3.4254     8.1914    -5.3274 F       
  30 Cl30          -3.4699    10.6295    -3.6706 Cl      
  31 H31            1.9712     3.6599     1.2833 H       
  32 H32            4.0095     2.2711     0.9749 H       
  33 H33            3.9177     0.3554    -0.6034 H       
  34 H34            1.8248    -0.1162    -1.8141 H       
  35 H35           -1.5108     2.2948    -1.2857 H       
  36 H36           -1.7154     5.5747    -0.0300 H       
  37 H37           -3.8018     6.8122     0.3849 H       
  38 H38           -6.0563     3.2517    -0.2743 H       
  39 H39           -3.9764     2.0072    -0.7016 H       
  40 H40           -7.8444     6.4483    -1.4645 H       
  41 H41           -6.3516     6.7366    -3.6177 H       
  42 H42           -4.3146    10.3590    -0.9655 H       
  43 H43           -5.7950     8.7245     0.1277 H       
@<TRIPOS>BOND
   1    1    2 ar
   2    1    6 ar
   3    1    7 1
   4    2    3 ar
   5    2   31 1
   6    3    4 ar
   7    3   32 1
   8    4    5 ar
   9    4   33 1
  10    5    6 ar
  11    5   34 1
  12    7    8 2
  13    7    9 am
  14    9   10 1
  15    9   35 1
  16   10   11 ar
  17   10   15 ar
  18   11   12 ar
  19   11   36 1
  20   12   13 ar
  21   12   37 1
  22   13   14 ar
  23   13   16 1
  24   14   15 ar
  25   14   38 1
  26   15   39 1
  27   16   17 2
  28   16   18 2
  29   16   19 am
  30   19   20 1
  31   19   40 1
  32   20   21 ar
  33   20   25 ar
  34   21   22 ar
  35   21   41 1
  36   22   23 ar
  37   22   26 1
  38   23   24 ar
  39   23   30 1
  40   24   25 ar
  41   24   42 1
  42   25   43 1
  43   26   27 1
  44   26   28 1
  45   26   29 1

#	End of record

