#	Name: ASD00170125
#	Creating user name:	WinNT
#	Creation time:	15. 06. 2019 18:31

#	Modifying user name:	WinNT
#	Modification time:	15. 06. 2019 18:31

#	Program:	/corina/corina34_cracker 3.40 0067  02.08.2006

@<TRIPOS>MOLECULE
ASD00170125
  33   36    0    0    0
SMALL
NO_CHARGES


@<TRIPOS>ATOM
   1 C1            -0.0182     1.4914     0.0102 C.2     
   2 C2             0.0021    -0.0041     0.0020 C.ar    
   3 C3             1.3190    -0.4523    -0.0130 C.ar    
   4 C4             2.1958     0.7739    -0.0148 C.3     
   5 C5             1.2473     1.9527     0.0006 C.2     
   6 S6             1.2222     3.7155     0.0103 S.3     
   7 C7            -0.5366     3.6919     0.0270 C.2     
   8 N8            -0.9504     2.4701     0.0195 N.2     
   9 C9            -1.0453    -0.9282     0.0071 C.ar    
  10 C10           -0.7701    -2.2774    -0.0028 C.ar    
  11 C11            0.5516    -2.7230    -0.0178 C.ar    
  12 C12            1.5976    -1.7992    -0.0229 C.ar    
  13 N13           -1.3513     4.8123     0.0408 N.pl3   
  14 C14            0.8449    -4.1767    -0.0285 C.ar    
  15 C15           -0.1983    -5.1008    -0.0235 C.ar    
  16 C16            0.0806    -6.4525    -0.0339 C.ar    
  17 C17            1.3924    -6.8905    -0.0493 C.ar    
  18 C18            2.4321    -5.9777    -0.0538 C.ar    
  19 C19            2.1651    -4.6240    -0.0493 C.ar    
  20 N20           -1.0263    -7.4353    -0.0281 N.pl3   
  21 O21           -2.1819    -7.0508    -0.0142 O.2     
  22 O22           -0.7814    -8.6284    -0.0373 O.2     
  23 H23            2.8272     0.7868     0.8736 H       
  24 H24            2.8102     0.7964    -0.9148 H       
  25 H25           -2.0693    -0.5851     0.0190 H       
  26 H26           -1.5796    -2.9923     0.0014 H       
  27 H27            2.6221    -2.1407    -0.0348 H       
  28 H28           -0.9573     5.6986     0.0418 H       
  29 H29           -2.3159     4.7103     0.0495 H       
  30 H30           -1.2230    -4.7599    -0.0111 H       
  31 H31            1.6060    -7.9492    -0.0574 H       
  32 H32            3.4545    -6.3254    -0.0655 H       
  33 H33            2.9775    -3.9123    -0.0529 H       
@<TRIPOS>BOND
   1    1    2 1
   2    1    5 2
   3    1    8 1
   4    2    3 ar
   5    2    9 ar
   6    3    4 1
   7    3   12 ar
   8    4    5 1
   9    4   23 1
  10    4   24 1
  11    5    6 1
  12    6    7 1
  13    7    8 2
  14    7   13 1
  15    9   10 ar
  16    9   25 1
  17   10   11 ar
  18   10   26 1
  19   11   12 ar
  20   11   14 1
  21   12   27 1
  22   13   28 1
  23   13   29 1
  24   14   15 ar
  25   14   19 ar
  26   15   16 ar
  27   15   30 1
  28   16   17 ar
  29   16   20 1
  30   17   18 ar
  31   17   31 1
  32   18   19 ar
  33   18   32 1
  34   19   33 1
  35   20   21 2
  36   20   22 2

#	End of record

