#	Name: ASD01530057
#	Creating user name:	WinNT
#	Creation time:	15. 06. 2019 19:22

#	Modifying user name:	WinNT
#	Modification time:	15. 06. 2019 19:22

#	Program:	/corina/corina34_cracker 3.40 0067  02.08.2006

@<TRIPOS>MOLECULE
ASD01530057
  51   53    0    0    0
SMALL
NO_CHARGES


@<TRIPOS>ATOM
   1 C1             0.6252     1.6646     0.0485 C.ar    
   2 C2             0.6980     0.2787     0.2069 C.ar    
   3 C3             1.9451    -0.3478     0.2581 C.ar    
   4 C4             3.0972     0.4041     0.1520 C.ar    
   5 C5             3.0186     1.7744    -0.0045 C.ar    
   6 C6             1.7827     2.4031    -0.0561 C.ar    
   7 C7             4.0729     2.8481    -0.1460 C.3     
   8 O8             3.4120     4.0928     0.1461 O.3     
   9 C9             2.0390     3.8821    -0.2307 C.3     
  10 C10            5.1908     2.6107     0.8365 C.ar    
  11 C11            4.6203     2.8644    -1.5746 C.3     
  12 C12            6.0231     1.5174     0.6854 C.ar    
  13 C13            7.0485     1.2997     1.5867 C.ar    
  14 C14            7.2417     2.1754     2.6386 C.ar    
  15 C15            6.4099     3.2692     2.7891 C.ar    
  16 C16            5.3872     3.4893     1.8854 C.ar    
  17 C17            5.6311     4.0036    -1.7206 C.3     
  18 C18            6.1784     4.0200    -3.1492 C.3     
  19 N19            7.1489     5.1138    -3.2893 N.3     
  20 C20            7.8690     5.0183    -4.5661 C.3     
  21 C21            1.8251     4.2854    -1.6910 C.3     
  22 C22            1.1124     4.6889     0.6811 C.3     
  23 C23           -0.5011    -0.4964     0.3169 C.1     
  24 N24           -1.4523    -1.1113     0.4041 N.1     
  25 C25            6.4925     6.4208    -3.1516 C.3     
  26 H26           -0.3360     2.1549     0.0036 H       
  27 H27            2.0077    -1.4190     0.3808 H       
  28 H28            4.0621    -0.0794     0.1918 H       
  29 H29            5.1105     1.9143    -1.7868 H       
  30 H30            3.7998     3.0145    -2.2763 H       
  31 H31            5.8722     0.8332    -0.1364 H       
  32 H32            7.6984     0.4451     1.4691 H       
  33 H33            8.0423     2.0049     3.3431 H       
  34 H34            6.5606     3.9532     3.6112 H       
  35 H35            4.7396     4.3459     2.0009 H       
  36 H36            5.1408     4.9538    -1.5084 H       
  37 H37            6.4515     3.8535    -1.0188 H       
  38 H38            6.6687     3.0698    -3.3613 H       
  39 H39            5.3579     4.1701    -3.8509 H       
  40 H40            7.1573     5.0749    -5.3898 H       
  41 H41            8.5810     5.8400    -4.6440 H       
  42 H42            8.4031     4.0692    -4.6119 H       
  43 H43            0.7628     4.2348    -1.9300 H       
  44 H44            2.1837     5.3034    -1.8430 H       
  45 H45            2.3763     3.6052    -2.3402 H       
  46 H46            1.2961     4.4148     1.7200 H       
  47 H47            1.3065     5.7530     0.5464 H       
  48 H48            0.0746     4.4738     0.4266 H       
  49 H49            6.0259     6.4913    -2.1690 H       
  50 H50            7.2337     7.2127    -3.2595 H       
  51 H51            5.7310     6.5281    -3.9240 H       
@<TRIPOS>BOND
   1    1    2 ar
   2    1    6 ar
   3    1   26 1
   4    2    3 ar
   5    2   23 1
   6    3    4 ar
   7    3   27 1
   8    4    5 ar
   9    4   28 1
  10    5    7 1
  11    5    6 ar
  12    6    9 1
  13    7    8 1
  14    7   10 1
  15    7   11 1
  16    8    9 1
  17    9   21 1
  18    9   22 1
  19   10   12 ar
  20   10   16 ar
  21   11   17 1
  22   11   29 1
  23   11   30 1
  24   12   13 ar
  25   12   31 1
  26   13   14 ar
  27   13   32 1
  28   14   15 ar
  29   14   33 1
  30   15   16 ar
  31   15   34 1
  32   16   35 1
  33   17   18 1
  34   17   36 1
  35   17   37 1
  36   18   19 1
  37   18   38 1
  38   18   39 1
  39   19   20 1
  40   19   25 1
  41   20   40 1
  42   20   41 1
  43   20   42 1
  44   21   43 1
  45   21   44 1
  46   21   45 1
  47   22   46 1
  48   22   47 1
  49   22   48 1
  50   23   24 3
  51   25   49 1
  52   25   50 1
  53   25   51 1

#	End of record

