#	Name: ASD01882030
#	Creating user name:	WinNT
#	Creation time:	15. 06. 2019 19:43

#	Modifying user name:	WinNT
#	Modification time:	15. 06. 2019 19:43

#	Program:	/corina/corina34_cracker 3.40 0067  02.08.2006

@<TRIPOS>MOLECULE
ASD01882030
  61   65    0    0    0
SMALL
NO_CHARGES


@<TRIPOS>ATOM
   1 C1             0.2717     5.3106    -1.0789 C.2     
   2 N2            -0.9412     5.5198    -1.6035 N.am    
   3 C3            -1.7309     4.4350    -1.4779 C.2     
   4 C4            -0.8870     3.3935    -0.7700 C.3     
   5 N5             0.4011     4.0765    -0.5593 N.am    
   6 O6             1.1592     6.1410    -1.0767 O.2     
   7 O7            -2.8778     4.3168    -1.8524 O.2     
   8 C8            -1.5181     3.0092     0.5697 C.3     
   9 C9            -0.7030     2.1583    -1.6540 C.3     
  10 C10           -1.3594     6.7734    -2.2357 C.3     
  11 C11            1.5911     3.5201     0.0890 C.3     
  12 C12            1.6147     3.9355     1.5375 C.ar    
  13 C13            2.6089     3.4608     2.3744 C.ar    
  14 C14            2.6356     3.8378     3.7014 C.ar    
  15 C15            1.6580     4.6987     4.1985 C.ar    
  16 C16            0.6589     5.1737     3.3507 C.ar    
  17 C17            0.6456     4.7943     2.0237 C.ar    
  18 S18            3.8431     2.3724     1.7445 S.o2    
  19 O19            4.2825     2.9968     0.5461 O.2     
  20 O20            4.7304     2.1787     2.8375 O.2     
  21 C21            2.9475     0.8395     1.3723 C.3     
  22 C22            1.4963     6.4374     9.6349 C.2     
  23 N23            0.4097     7.2282     9.6275 N.am    
  24 C24           -0.1578     7.2385     8.2744 C.3     
  25 C25            0.7256     6.3447     7.4399 C.ar    
  26 C26            0.7012     5.9693     6.1195 C.ar    
  27 C27            1.6810     5.1071     5.6237 C.ar    
  28 C28            2.6815     4.6297     6.4710 C.ar    
  29 C29            2.7057     5.0062     7.7946 C.ar    
  30 C30            1.7259     5.8694     8.2935 C.ar    
  31 O31            2.1937     6.2246    10.6077 O.2     
  32 C32           -0.1213     7.9591    10.7808 C.3     
  33 C33           -0.5519     7.1398    11.9991 C.3     
  34 C34            0.7255     7.9800    12.0548 C.3     
  35 H35           -2.5350     2.6536     0.4037 H       
  36 H36           -0.9286     2.2198     1.0359 H       
  37 H37           -1.5403     3.8807     1.2241 H       
  38 H38           -0.2292     2.4497    -2.5914 H       
  39 H39           -0.0732     1.4332    -1.1385 H       
  40 H40           -1.6756     1.7121    -1.8618 H       
  41 H41           -0.5361     7.4872    -2.2069 H       
  42 H42           -1.6386     6.5824    -3.2718 H       
  43 H43           -2.2147     7.1835    -1.6986 H       
  44 H44            1.5655     2.4323     0.0234 H       
  45 H45            2.4851     3.8933    -0.4106 H       
  46 H46            3.4119     3.4664     4.3539 H       
  47 H47           -0.1008     5.8409     3.7303 H       
  48 H48           -0.1253     5.1655     1.3646 H       
  49 H49            2.2473     1.0169     0.5560 H       
  50 H50            3.6574     0.0657     1.0802 H       
  51 H51            2.3996     0.5148     2.2569 H       
  52 H52           -1.1755     6.8486     8.2920 H       
  53 H53           -0.1512     8.2519     7.8731 H       
  54 H54           -0.0741     6.3404     5.4656 H       
  55 H55            3.4390     3.9625     6.0871 H       
  56 H56            3.4814     4.6346     8.4477 H       
  57 H57           -0.6993     8.8528    10.5455 H       
  58 H58           -1.4129     7.4948    12.5655 H       
  59 H59           -0.4401     6.0570    11.9425 H       
  60 H60            1.6778     7.4500    12.0349 H       
  61 H61            0.7050     8.8877    12.6579 H       
@<TRIPOS>BOND
   1    1    2 am
   2    1    5 am
   3    1    6 2
   4    2    3 am
   5    2   10 1
   6    3    4 1
   7    3    7 2
   8    4    5 1
   9    4    8 1
  10    4    9 1
  11    5   11 1
  12    8   35 1
  13    8   36 1
  14    8   37 1
  15    9   38 1
  16    9   39 1
  17    9   40 1
  18   10   41 1
  19   10   42 1
  20   10   43 1
  21   11   12 1
  22   11   44 1
  23   11   45 1
  24   12   13 ar
  25   12   17 ar
  26   13   14 ar
  27   13   18 1
  28   14   15 ar
  29   14   46 1
  30   15   16 ar
  31   15   27 1
  32   16   17 ar
  33   16   47 1
  34   17   48 1
  35   18   19 2
  36   18   20 2
  37   18   21 1
  38   21   49 1
  39   21   50 1
  40   21   51 1
  41   22   23 am
  42   22   30 1
  43   22   31 2
  44   23   24 1
  45   23   32 1
  46   24   25 1
  47   24   52 1
  48   24   53 1
  49   25   26 ar
  50   25   30 ar
  51   26   27 ar
  52   26   54 1
  53   27   28 ar
  54   28   29 ar
  55   28   55 1
  56   29   30 ar
  57   29   56 1
  58   32   33 1
  59   32   34 1
  60   32   57 1
  61   33   34 1
  62   33   58 1
  63   33   59 1
  64   34   60 1
  65   34   61 1

#	End of record

