#	Name: ASD05143095
#	Creating user name:	WinNT
#	Creation time:	15. 06. 2019 20:57

#	Modifying user name:	WinNT
#	Modification time:	15. 06. 2019 20:57

#	Program:	/corina/corina34_cracker 3.40 0067  02.08.2006

@<TRIPOS>MOLECULE
ASD05143095
 147  150    0    0    0
SMALL
NO_CHARGES


@<TRIPOS>ATOM
   1 C1            -1.5920     3.5296    -0.4197 C.2     
   2 C2            -1.7964     2.0991     0.0081 C.3     
   3 N3            -0.3881     4.1146    -0.2619 N.am    
   4 O4            -2.5094     4.1527    -0.9106 O.2     
   5 C5            -0.1894     5.5052    -0.6778 C.3     
   6 C6            -1.1457     6.4117     0.0998 C.3     
   7 C7            -0.4653     5.6324    -2.1539 C.2     
   8 C8            -0.7847     6.3783     1.5862 C.3     
   9 C9            -1.7410     7.2848     2.3638 C.3     
  10 N10           -1.3954     7.2528     3.7870 N.pl3   
  11 C11           -2.1219     7.9952     4.6877 C.2     
  12 N12           -3.1727     8.7677     4.2527 N.pl3   
  13 N13           -1.8144     7.9667     5.9540 N.2     
  14 O14           -1.1274     4.7898    -2.7218 O.2     
  15 N15            0.0237     6.6825    -2.8428 N.am    
  16 C16           -0.2446     6.8062    -4.2777 C.3     
  17 C17           -0.1589     8.2776    -4.6873 C.3     
  18 C18           -0.9399     8.4924    -5.9579 C.2     
  19 N19           -1.6056     9.6666    -6.1351 N.am    
  20 C20           -2.3476     9.8206    -7.4022 C.3     
  21 C21           -2.0874    11.2214    -7.9602 C.3     
  22 C22           -1.5453    11.1097    -9.3865 C.3     
  23 C23           -0.1885    11.8115    -9.4732 C.3     
  24 C24            0.1931    12.0036   -10.9423 C.3     
  25 N25            1.6453    12.2554   -11.0295 N.am    
  26 C26           -0.5582    13.1806   -11.5092 C.2     
  27 N27           -1.8409    13.0377   -11.8973 N.am    
  28 O28           -0.0085    14.2563   -11.6163 O.2     
  29 C29            2.4140    11.2305   -11.4898 C.2     
  30 O30            1.9064    10.1752   -11.8055 O.2     
  31 C31            3.9042    11.4250   -11.6023 C.3     
  32 N32            4.5551    10.0948   -11.6085 N.am    
  33 C33            4.2292    12.1619   -12.9032 C.3     
  34 C34            5.3246     9.8152   -10.5150 C.2     
  35 O35            5.4462    10.6267    -9.6219 O.2     
  36 C36            6.0193     8.4801   -10.4379 C.3     
  37 N37            6.2156     8.1275    -9.0174 N.am    
  38 C38            5.1575     7.4135   -11.1167 C.3     
  39 C39            5.8052     6.8870    -8.6358 C.2     
  40 O40            5.3158     6.1259    -9.4433 O.2     
  41 C41            5.9680     6.4722    -7.1960 C.3     
  42 C42            5.7049    12.4632   -12.9546 C.2     
  43 C43            6.7616    11.5655   -13.4270 C.ar    
  44 C44            7.9672    12.2767   -13.2871 C.ar    
  45 N45            7.6520    13.5122   -12.7677 N.pl3   
  46 C46            6.2997    13.6074   -12.5817 C.2     
  47 C47            6.7746    10.2656   -13.9369 C.ar    
  48 C48            7.9602     9.6905   -14.2979 C.ar    
  49 C49            9.1528    10.3881   -14.1614 C.ar    
  50 C50            9.1627    11.6716   -13.6614 C.ar    
  51 N51            4.8599     5.5564    -6.8408 N.am    
  52 C52            5.9206     7.7090    -6.2966 C.3     
  53 C53            7.0923     8.6034    -6.6103 C.ar    
  54 C54            6.8768     9.8735    -7.1118 C.ar    
  55 C55            7.9504    10.6947    -7.3994 C.ar    
  56 C56            9.2423    10.2450    -7.1850 C.ar    
  57 C57            9.4569     8.9728    -6.6826 C.ar    
  58 C58            8.3815     8.1552    -6.3908 C.ar    
  59 C59            0.7745     6.0084    -5.0495 C.2     
  60 O60            0.4863     5.5142    -6.1189 O.2     
  61 C61            3.7693     7.3944   -10.4737 C.3     
  62 C62            2.8828     6.3839   -11.2044 C.3     
  63 N63            1.5535     6.3656   -10.5887 N.pl3   
  64 C64            0.5800     5.5282   -11.0798 C.2     
  65 N65           -0.6675     5.5110   -10.5020 N.pl3   
  66 N66            0.8396     4.7507   -12.0932 N.2     
  67 N67            2.0231     5.8501    -4.5306 N.am    
  68 C68            2.9720     5.0472    -5.3274 C.3     
  69 C69            4.1184     5.9272    -5.7546 C.2     
  70 O70            4.3778     6.9439    -5.1464 O.2     
  71 C71            2.2620     4.4940    -6.5646 C.3     
  72 C72            1.2089     3.4712    -6.1337 C.3     
  73 C73            0.4161     3.0292    -7.3367 C.2     
  74 O74           -0.9747     7.6312    -6.8112 O.2     
  75 O75            0.6685     3.4873    -8.4310 O.2     
  76 N76           -0.5734     2.1250    -7.1965 N.am    
  77 F77           10.2926    11.0468    -7.4663 F       
  78 H78           -2.1239     2.0740     1.0475 H       
  79 H79           -2.5549     1.6360    -0.6231 H       
  80 H80           -0.8584     1.5527    -0.0907 H       
  81 H81            0.3467     3.6150     0.1270 H       
  82 H82            0.8393     5.8020    -0.4736 H       
  83 H83           -1.0611     7.4330    -0.2718 H       
  84 H84           -2.1688     6.0602    -0.0337 H       
  85 H85           -0.8694     5.3571     1.9577 H       
  86 H86            0.2383     6.7299     1.7196 H       
  87 H87           -1.6564     8.3060     1.9922 H       
  88 H88           -2.7641     6.9332     2.2303 H       
  89 H89           -0.6540     6.7078     4.0940 H       
  90 H90           -3.4016     8.7889     3.3103 H       
  91 H91           -3.6853     9.2915     4.8882 H       
  92 H92           -2.3270     8.4905     6.5895 H       
  93 H93            0.5532     7.3565    -2.3885 H       
  94 H94           -1.2430     6.4264    -4.4946 H       
  95 H95           -0.5754     8.9000    -3.8953 H       
  96 H96            0.8840     8.5487    -4.8517 H       
  97 H97           -1.5929    10.3663    -5.4634 H       
  98 H98           -2.0063     9.0730    -8.1184 H       
  99 H99           -3.4144     9.6929    -7.2187 H       
 100 H100          -3.0187    11.7878    -7.9688 H       
 101 H101          -1.3571    11.7325    -7.3329 H       
 102 H102          -1.4279    10.0584    -9.6493 H       
 103 H103          -2.2431    11.5814   -10.0784 H       
 104 H104          -0.2502    12.7834    -8.9837 H       
 105 H105           0.5678    11.2026    -8.9780 H       
 106 H106          -0.0559    11.1039   -11.5049 H       
 107 H107           2.0317    13.1071   -10.7723 H       
 108 H108          -2.2806    12.1773   -11.8117 H       
 109 H109          -2.3245    13.7952   -12.2622 H       
 110 H110           4.2629    12.0040   -10.7514 H       
 111 H111           4.4427     9.4657   -12.3382 H       
 112 H112           3.9563    11.5363   -13.7531 H       
 113 H113           3.6663    13.0945   -12.9429 H       
 114 H114           6.9869     8.5423   -10.9360 H       
 115 H115           6.6166     8.7478    -8.3887 H       
 116 H116           5.0633     7.6439   -12.1779 H       
 117 H117           5.6268     6.4370   -10.9972 H       
 118 H118           6.9215     5.9598    -7.0683 H       
 119 H119           8.2927    14.2123   -12.5671 H       
 120 H120           5.7876    14.4721   -12.1861 H       
 121 H121           5.8508     9.7167   -14.0452 H       
 122 H122           7.9698     8.6851   -14.6922 H       
 123 H123          10.0820     9.9199   -14.4507 H       
 124 H124          10.0957    12.2060   -13.5593 H       
 125 H125           4.6731     4.7489    -7.3447 H       
 126 H126           4.9919     8.2515    -6.4733 H       
 127 H127           5.9683     7.4008    -5.2521 H       
 128 H128           5.8691    10.2239    -7.2793 H       
 129 H129           7.7819    11.6868    -7.7916 H       
 130 H130          10.4641     8.6209    -6.5150 H       
 131 H131           8.5486     7.1628    -5.9989 H       
 132 H132           3.8583     7.1086    -9.4256 H       
 133 H133           3.3230     8.3864   -10.5432 H       
 134 H134           2.7938     6.6697   -12.2525 H       
 135 H135           3.3291     5.3919   -11.1349 H       
 136 H136           1.3603     6.9442    -9.8346 H       
 137 H137          -0.8607     6.0896    -9.7479 H       
 138 H138          -1.3543     4.9202   -10.8485 H       
 139 H139           0.1527     4.1599   -12.4397 H       
 140 H140           2.2763     6.2447    -3.6815 H       
 141 H141           3.3502     4.2231    -4.7226 H       
 142 H142           1.7778     5.3101    -7.1010 H       
 143 H143           2.9907     4.0125    -7.2168 H       
 144 H144           1.7023     2.6081    -5.6866 H       
 145 H145           0.5388     3.9252    -5.4037 H       
 146 H146          -0.7753     1.7587    -6.3214 H       
 147 H147          -1.0837     1.8405    -7.9709 H       
@<TRIPOS>BOND
   1    1    2 1
   2    1    3 am
   3    1    4 2
   4    2   78 1
   5    2   79 1
   6    2   80 1
   7    3    5 1
   8    3   81 1
   9    5    6 1
  10    5    7 1
  11    5   82 1
  12    6    8 1
  13    6   83 1
  14    6   84 1
  15    7   14 2
  16    7   15 am
  17    8    9 1
  18    8   85 1
  19    8   86 1
  20    9   10 1
  21    9   87 1
  22    9   88 1
  23   10   11 1
  24   10   89 1
  25   11   12 1
  26   11   13 2
  27   12   90 1
  28   12   91 1
  29   13   92 1
  30   15   16 1
  31   15   93 1
  32   16   17 1
  33   16   59 1
  34   16   94 1
  35   17   18 1
  36   17   95 1
  37   17   96 1
  38   18   19 am
  39   18   74 2
  40   19   20 1
  41   19   97 1
  42   20   21 1
  43   20   98 1
  44   20   99 1
  45   21   22 1
  46   21  100 1
  47   21  101 1
  48   22   23 1
  49   22  102 1
  50   22  103 1
  51   23   24 1
  52   23  104 1
  53   23  105 1
  54   24   25 1
  55   24   26 1
  56   24  106 1
  57   25   29 am
  58   25  107 1
  59   26   27 am
  60   26   28 2
  61   27  108 1
  62   27  109 1
  63   29   30 2
  64   29   31 1
  65   31   32 1
  66   31   33 1
  67   31  110 1
  68   32   34 am
  69   32  111 1
  70   33   42 1
  71   33  112 1
  72   33  113 1
  73   34   35 2
  74   34   36 1
  75   36   37 1
  76   36   38 1
  77   36  114 1
  78   37   39 am
  79   37  115 1
  80   38   61 1
  81   38  116 1
  82   38  117 1
  83   39   40 2
  84   39   41 1
  85   41   51 1
  86   41   52 1
  87   41  118 1
  88   42   43 1
  89   42   46 2
  90   43   44 ar
  91   43   47 ar
  92   44   45 1
  93   44   50 ar
  94   45   46 1
  95   45  119 1
  96   46  120 1
  97   47   48 ar
  98   47  121 1
  99   48   49 ar
 100   48  122 1
 101   49   50 ar
 102   49  123 1
 103   50  124 1
 104   51   69 am
 105   51  125 1
 106   52   53 1
 107   52  126 1
 108   52  127 1
 109   53   54 ar
 110   53   58 ar
 111   54   55 ar
 112   54  128 1
 113   55   56 ar
 114   55  129 1
 115   56   57 ar
 116   56   77 1
 117   57   58 ar
 118   57  130 1
 119   58  131 1
 120   59   60 2
 121   59   67 am
 122   61   62 1
 123   61  132 1
 124   61  133 1
 125   62   63 1
 126   62  134 1
 127   62  135 1
 128   63   64 1
 129   63  136 1
 130   64   65 1
 131   64   66 2
 132   65  137 1
 133   65  138 1
 134   66  139 1
 135   67   68 1
 136   67  140 1
 137   68   69 1
 138   68   71 1
 139   68  141 1
 140   69   70 2
 141   71   72 1
 142   71  142 1
 143   71  143 1
 144   72   73 1
 145   72  144 1
 146   72  145 1
 147   73   75 2
 148   73   76 am
 149   76  146 1
 150   76  147 1

#	End of record

