#	Name: ASD01903275
#	Creating user name:	WinNT
#	Creation time:	15. 06. 2019 19:54

#	Modifying user name:	WinNT
#	Modification time:	15. 06. 2019 19:54

#	Program:	/corina/corina34_cracker 3.40 0067  02.08.2006

@<TRIPOS>MOLECULE
ASD01903275
  42   45    0    0    0
SMALL
NO_CHARGES


@<TRIPOS>ATOM
   1 C1             0.1668     1.1271    -0.1580 C.ar    
   2 C2            -0.1378     0.3695    -1.2773 C.ar    
   3 C3             0.6782     0.4500    -2.3952 C.ar    
   4 C4             1.7777     1.2923    -2.3518 C.ar    
   5 C5             2.0235     2.0250    -1.1924 C.ar    
   6 N6             1.2170     1.9189    -0.1436 N.ar    
   7 C7             3.1946     2.9298    -1.1298 C.2     
   8 O8             3.9364     3.0308    -2.0873 O.2     
   9 N9             3.4377     3.6411    -0.0111 N.am    
  10 C10            4.6006     4.4153     0.0877 C.ar    
  11 C11            4.5857     5.7462    -0.3119 C.ar    
  12 C12            5.7332     6.5094    -0.2137 C.ar    
  13 C13            6.9010     5.9469     0.2836 C.ar    
  14 C14            6.9166     4.6173     0.6829 C.ar    
  15 C15            5.7684     3.8545     0.5906 C.ar    
  16 N16            8.0672     6.7209     0.3774 N.am    
  17 C17            8.1535     8.0141     0.0172 C.2     
  18 C18            9.5346     8.4803     0.2628 C.ar    
  19 C19           10.2290     7.3704     0.7856 C.ar    
  20 C20            9.2449     6.2691     0.8450 C.2     
  21 O21            7.2483     8.6861    -0.4345 O.2     
  22 O22            9.4648     5.1427     1.2424 O.2     
  23 C23           11.5335     9.7925     0.4303 C.ar    
  24 C24           12.2145     8.7041     0.9424 C.ar    
  25 C25           11.5676     7.4914     1.1224 C.ar    
  26 C26           10.1943     9.6862     0.0887 C.ar    
  27 C27            9.4591    10.8771    -0.4701 C.3     
  28 Cl28           5.7881     2.1920     1.0899 Cl      
  29 Cl29           3.1259     6.4494    -0.9347 Cl      
  30 H30           -0.4692     1.0702     0.7129 H       
  31 H31           -1.0024    -0.2778    -1.2788 H       
  32 H32            0.4620    -0.1308    -3.2797 H       
  33 H33            2.4350     1.3794    -3.2043 H       
  34 H34            2.8071     3.6168     0.7256 H       
  35 H35            5.7217     7.5438    -0.5242 H       
  36 H36            7.8254     4.1804     1.0696 H       
  37 H37           12.0487    10.7319     0.2944 H       
  38 H38           13.2580     8.7993     1.2044 H       
  39 H39           12.1045     6.6446     1.5237 H       
  40 H40            9.0163    11.4469     0.3468 H       
  41 H41           10.1567    11.5103    -1.0184 H       
  42 H42            8.6725    10.5356    -1.1430 H       
@<TRIPOS>BOND
   1    1    2 ar
   2    1    6 ar
   3    1   30 1
   4    2    3 ar
   5    2   31 1
   6    3    4 ar
   7    3   32 1
   8    4    5 ar
   9    4   33 1
  10    5    6 ar
  11    5    7 1
  12    7    8 2
  13    7    9 am
  14    9   10 1
  15    9   34 1
  16   10   11 ar
  17   10   15 ar
  18   11   12 ar
  19   11   29 1
  20   12   13 ar
  21   12   35 1
  22   13   14 ar
  23   13   16 1
  24   14   15 ar
  25   14   36 1
  26   15   28 1
  27   16   17 am
  28   16   20 am
  29   17   18 1
  30   17   21 2
  31   18   19 ar
  32   18   26 ar
  33   19   20 1
  34   19   25 ar
  35   20   22 2
  36   23   24 ar
  37   23   26 ar
  38   23   37 1
  39   24   25 ar
  40   24   38 1
  41   25   39 1
  42   26   27 1
  43   27   40 1
  44   27   41 1
  45   27   42 1

#	End of record

