#	Name: ASD05832003
#	Creating user name:	WinNT
#	Creation time:	15. 06. 2019 21:03

#	Modifying user name:	WinNT
#	Modification time:	15. 06. 2019 21:03

#	Program:	/corina/corina34_cracker 3.40 0067  02.08.2006

@<TRIPOS>MOLECULE
ASD05832003
  62   62    0    0    0
SMALL
NO_CHARGES


@<TRIPOS>ATOM
   1 C1            -0.0167     1.3781     0.0096 C.ar    
   2 C2             0.0021    -0.0041     0.0020 C.ar    
   3 C3             1.2084    -0.6789    -0.0132 C.ar    
   4 C4             2.3960     0.0285    -0.0212 C.ar    
   5 C5             2.3773     1.4107    -0.0145 C.ar    
   6 C6             1.1710     2.0855     0.0021 C.ar    
   7 C7             3.6720     2.1819    -0.0228 C.3     
   8 C8             4.0969     2.4497    -1.4680 C.3     
   9 C9             5.4113     3.2327    -1.4764 C.3     
  10 C10            5.8362     3.5004    -2.9216 C.3     
  11 C11            7.1507     4.2834    -2.9300 C.3     
  12 C12            7.5756     4.5512    -4.3753 C.3     
  13 C13            8.8901     5.3341    -4.3837 C.3     
  14 C14            9.3149     5.6019    -5.8289 C.3     
  15 C15           -1.2926    -0.7753     0.0108 C.3     
  16 C16           -1.7452    -1.0285    -1.4286 C.3     
  17 C17           -3.0596    -1.8115    -1.4197 C.3     
  18 C18           -3.4478    -2.1727    -2.8549 C.3     
  19 C19           -4.7622    -2.9557    -2.8460 C.3     
  20 N20           -2.8919    -3.0410    -0.6336 N.3     
  21 C21           -4.1606    -0.9525    -0.7945 C.3     
  22 O22           -4.3238     0.2435    -1.5593 O.3     
  23 P23           -5.2247    -3.3862    -4.5560 P.3     
  24 O24           -4.1087    -4.1139    -5.2006 O.2     
  25 O25           -6.5356    -4.3207    -4.5383 O.3     
  26 O26           -5.5363    -2.0402    -5.3827 O.3     
  27 H27           -0.9592     1.9054     0.0170 H       
  28 H28            1.2231    -1.7588    -0.0184 H       
  29 H29            3.3386    -0.4987    -0.0324 H       
  30 H30            1.1563     3.1654     0.0069 H       
  31 H31            3.5335     3.1300     0.4968 H       
  32 H32            4.4443     1.6008     0.4812 H       
  33 H33            4.2354     1.5016    -1.9876 H       
  34 H34            3.3246     3.0308    -1.9720 H       
  35 H35            5.2728     4.1808    -0.9568 H       
  36 H36            6.1836     2.6516    -0.9724 H       
  37 H37            5.9748     2.5523    -3.4412 H       
  38 H38            5.0640     4.0815    -3.4257 H       
  39 H39            7.0122     5.2315    -2.4104 H       
  40 H40            7.9230     3.7023    -2.4260 H       
  41 H41            7.7141     3.6031    -4.8949 H       
  42 H42            6.8033     5.1323    -4.8793 H       
  43 H43            8.7515     6.2823    -3.8641 H       
  44 H44            9.6623     4.7530    -3.8796 H       
  45 H45            9.4535     4.6538    -6.3485 H       
  46 H46            8.5427     6.1830    -6.3329 H       
  47 H47           10.2514     6.1597    -5.8349 H       
  48 H48           -1.1443    -1.7285     0.5181 H       
  49 H49           -2.0550    -0.1993     0.5353 H       
  50 H50           -1.8935    -0.0752    -1.9359 H       
  51 H51           -0.9828    -1.6044    -1.9532 H       
  52 H52           -3.5722    -1.2604    -3.4383 H       
  53 H53           -2.6634    -2.7847    -3.3004 H       
  54 H54           -4.6378    -3.8680    -2.2627 H       
  55 H55           -5.5466    -2.3438    -2.4006 H       
  56 H56           -2.1696    -3.6258    -1.0266 H       
  57 H57           -2.6985    -2.8282     0.3336 H       
  58 H58           -5.0971    -1.5103    -0.7881 H       
  59 H59           -3.8841    -0.6952     0.2279 H       
  60 H60           -5.0073     0.8373    -1.2197 H       
  61 H61           -6.8392    -4.5890    -5.4164 H       
  62 H62           -6.2585    -1.5118    -5.0162 H       
@<TRIPOS>BOND
   1    1    2 ar
   2    1    6 ar
   3    1   27 1
   4    2    3 ar
   5    2   15 1
   6    3    4 ar
   7    3   28 1
   8    4    5 ar
   9    4   29 1
  10    5    6 ar
  11    5    7 1
  12    6   30 1
  13    7    8 1
  14    7   31 1
  15    7   32 1
  16    8    9 1
  17    8   33 1
  18    8   34 1
  19    9   10 1
  20    9   35 1
  21    9   36 1
  22   10   11 1
  23   10   37 1
  24   10   38 1
  25   11   12 1
  26   11   39 1
  27   11   40 1
  28   12   13 1
  29   12   41 1
  30   12   42 1
  31   13   14 1
  32   13   43 1
  33   13   44 1
  34   14   45 1
  35   14   46 1
  36   14   47 1
  37   15   16 1
  38   15   48 1
  39   15   49 1
  40   16   17 1
  41   16   50 1
  42   16   51 1
  43   17   18 1
  44   17   20 1
  45   17   21 1
  46   18   19 1
  47   18   52 1
  48   18   53 1
  49   19   23 1
  50   19   54 1
  51   19   55 1
  52   20   56 1
  53   20   57 1
  54   21   22 1
  55   21   58 1
  56   21   59 1
  57   22   60 1
  58   23   24 2
  59   23   25 1
  60   23   26 1
  61   25   61 1
  62   26   62 1

#	End of record

