#	Name: ASD03330112
#	Creating user name:	WinNT
#	Creation time:	15. 06. 2019 20:36

#	Modifying user name:	WinNT
#	Modification time:	15. 06. 2019 20:36

#	Program:	/corina/corina34_cracker 3.40 0067  02.08.2006

@<TRIPOS>MOLECULE
ASD03330112
  28   29    0    0    0
SMALL
NO_CHARGES


@<TRIPOS>ATOM
   1 N1             0.0379     1.4175     0.1635 N.am    
   2 C2             0.0493    -0.0493     0.0578 C.3     
   3 C3             1.3659     0.0713    -0.7220 C.3     
   4 C4             1.5048     1.3816     0.0652 C.3     
   5 C5            -0.9032     2.3741     0.2890 C.2     
   6 O6            -2.0781     2.0679     0.3383 O.2     
   7 O7            -0.5416     3.6691     0.3597 O.3     
   8 C8             2.3919    -0.9742    -0.3676 C.ar    
   9 C9             2.0638    -2.3153    -0.4350 C.ar    
  10 C10            3.0049    -3.2743    -0.1099 C.ar    
  11 C11            4.2742    -2.8921     0.2821 C.ar    
  12 C12            4.6025    -1.5509     0.3486 C.ar    
  13 C13            3.6628    -0.5921     0.0194 C.ar    
  14 C14            1.1897     0.2582    -2.2069 C.2     
  15 N15            2.2627     0.4893    -2.9890 N.am    
  16 O16            0.0823     0.2007    -2.6982 O.2     
  17 H17            0.1582    -0.5528     1.0184 H       
  18 H18           -0.7725    -0.4481    -0.5369 H       
  19 H19            1.9206     2.1995    -0.5232 H       
  20 H20            2.0014     1.2592     1.0278 H       
  21 H21           -1.2520     4.3190     0.4493 H       
  22 H22            1.0721    -2.6139    -0.7413 H       
  23 H23            2.7483    -4.3221    -0.1618 H       
  24 H24            5.0092    -3.6412     0.5368 H       
  25 H25            5.5941    -1.2523     0.6552 H       
  26 H26            3.9204     0.4556     0.0678 H       
  27 H27            3.1381     0.6089    -2.5886 H       
  28 H28            2.1596     0.5360    -3.9524 H       
@<TRIPOS>BOND
   1    1    2 1
   2    1    4 1
   3    1    5 am
   4    2    3 1
   5    2   17 1
   6    2   18 1
   7    3    4 1
   8    3    8 1
   9    3   14 1
  10    4   19 1
  11    4   20 1
  12    5    6 2
  13    5    7 1
  14    7   21 1
  15    8    9 ar
  16    8   13 ar
  17    9   10 ar
  18    9   22 1
  19   10   11 ar
  20   10   23 1
  21   11   12 ar
  22   11   24 1
  23   12   13 ar
  24   12   25 1
  25   13   26 1
  26   14   15 am
  27   14   16 2
  28   15   27 1
  29   15   28 1

#	End of record

