#	Name: ASD03731843
#	Creating user name:	WinNT
#	Creation time:	15. 06. 2019 20:46

#	Modifying user name:	WinNT
#	Modification time:	15. 06. 2019 20:46

#	Program:	/corina/corina34_cracker 3.40 0067  02.08.2006

@<TRIPOS>MOLECULE
ASD03731843
  36   37    0    0    0
SMALL
NO_CHARGES


@<TRIPOS>ATOM
   1 C1             0.7581     1.4154    -0.4019 C.2     
   2 C2             0.5737    -0.0456    -0.3015 C.ar    
   3 C3             1.5327    -0.9110    -0.8345 C.ar    
   4 C4             1.3574    -2.2733    -0.7384 C.ar    
   5 C5             0.2278    -2.7882    -0.1126 C.ar    
   6 C6            -0.7286    -1.9305     0.4189 C.ar    
   7 C7            -0.5575    -0.5670     0.3319 C.ar    
   8 O8             1.7454     1.8673    -0.9490 O.2     
   9 N9            -0.1707     2.2485     0.1078 N.am    
  10 O10            0.0581    -4.1313    -0.0206 O.3     
  11 C11            0.5843    -4.7685     1.0581 C.ar    
  12 C12            1.1757    -4.0361     2.0772 C.ar    
  13 C13            1.7106    -4.6874     3.1741 C.ar    
  14 C14            1.6555    -6.0692     3.2542 C.ar    
  15 C15            1.0668    -6.7992     2.2389 C.ar    
  16 C16            0.5258    -6.1520     1.1445 C.ar    
  17 F17            2.2873    -3.9758     4.1672 F       
  18 S18            0.0362     3.8876    -0.0049 S.o2    
  19 O19           -1.1026     4.4303     0.6493 O.2     
  20 O20            1.3461     4.1109     0.4987 O.2     
  21 C21           -0.0285     4.2307    -1.7849 C.3     
  22 C22            0.1526     5.7313    -2.0220 C.3     
  23 H23            2.4102    -0.5118    -1.3215 H       
  24 H24            2.0981    -2.9428    -1.1501 H       
  25 H25           -1.6048    -2.3342     0.9044 H       
  26 H26           -1.2987     0.0987     0.7490 H       
  27 H27           -0.9603     1.8879     0.5407 H       
  28 H28            1.2187    -2.9588     2.0141 H       
  29 H29            2.0734    -6.5769     4.1109 H       
  30 H30            1.0256    -7.8765     2.3031 H       
  31 H31            0.0616    -6.7234     0.3543 H       
  32 H32            0.7684     3.6844    -2.2895 H       
  33 H33           -0.9934     3.9142    -2.1811 H       
  34 H34            0.1137     5.9375    -3.0916 H       
  35 H35           -0.6443     6.2777    -1.5175 H       
  36 H36            1.1175     6.0479    -1.6258 H       
@<TRIPOS>BOND
   1    1    2 1
   2    1    8 2
   3    1    9 am
   4    2    3 ar
   5    2    7 ar
   6    3    4 ar
   7    3   23 1
   8    4    5 ar
   9    4   24 1
  10    5    6 ar
  11    5   10 1
  12    6    7 ar
  13    6   25 1
  14    7   26 1
  15    9   18 am
  16    9   27 1
  17   10   11 1
  18   11   12 ar
  19   11   16 ar
  20   12   13 ar
  21   12   28 1
  22   13   14 ar
  23   13   17 1
  24   14   15 ar
  25   14   29 1
  26   15   16 ar
  27   15   30 1
  28   16   31 1
  29   18   19 2
  30   18   20 2
  31   18   21 1
  32   21   22 1
  33   21   32 1
  34   21   33 1
  35   22   34 1
  36   22   35 1
  37   22   36 1

#	End of record

