#	Name: ASD01120040
#	Creating user name:	WinNT
#	Creation time:	15. 06. 2019 18:58

#	Modifying user name:	WinNT
#	Modification time:	15. 06. 2019 18:58

#	Program:	/corina/corina34_cracker 3.40 0067  02.08.2006

@<TRIPOS>MOLECULE
ASD01120040
  49   52    0    0    0
SMALL
NO_CHARGES


@<TRIPOS>ATOM
   1 C1            -0.0909     1.3505     0.6525 C.ar    
   2 C2            -0.0523    -0.0386     0.4684 C.ar    
   3 C3            -1.1842    -0.7309     0.0985 C.ar    
   4 C4            -2.3848    -0.0371    -0.0951 C.ar    
   5 C5            -2.4161     1.3670     0.0929 C.ar    
   6 C6            -1.2528     2.0463     0.4740 C.ar    
   7 N7            -3.5151    -0.6646    -0.4561 N.ar    
   8 C8            -4.6250     0.0124    -0.6305 C.ar    
   9 N9            -4.7016     1.3236    -0.4669 N.ar    
  10 C10           -3.6439     2.0407    -0.1105 C.ar    
  11 N11           -3.7382     3.4079     0.0561 N.pl3   
  12 C12           -4.9822     4.0391    -0.0355 C.ar    
  13 O13            1.0395     2.0119     1.0182 O.3     
  14 O14            1.1140    -0.7092     0.6564 O.3     
  15 C15           -6.1278     3.3765     0.3771 C.ar    
  16 C16           -7.3666     4.0109     0.2840 C.ar    
  17 C17           -7.4444     5.3090    -0.2240 C.ar    
  18 C18           -6.2979     5.9603    -0.6321 C.ar    
  19 C19           -5.0698     5.3337    -0.5351 C.ar    
  20 C20           -8.5927     3.3111     0.7213 C.2     
  21 C21            0.9364     3.4268     1.1903 C.3     
  22 C22            2.2985     3.9915     1.5986 C.3     
  23 C23            1.0892    -2.1235     0.4535 C.3     
  24 C24            2.4831    -2.7000     0.7096 C.3     
  25 C25           -9.8550     3.8144     0.6835 C.2     
  26 C26          -10.7066     2.8134     1.1926 C.2     
  27 C27           -9.9300     1.7599     1.5124 C.2     
  28 O28           -8.6542     2.0619     1.2209 O.3     
  29 H29           -1.1457    -1.8011    -0.0416 H       
  30 H30           -1.2720     3.1164     0.6184 H       
  31 H31           -5.5162    -0.5240    -0.9209 H       
  32 H32           -2.9413     3.9306     0.2368 H       
  33 H33           -6.0614     2.3722     0.7689 H       
  34 H34           -8.4017     5.8035    -0.2980 H       
  35 H35           -6.3602     6.9643    -1.0252 H       
  36 H36           -4.1762     5.8484    -0.8560 H       
  37 H37            0.6194     3.8846     0.2532 H       
  38 H38            0.2044     3.6459     1.9676 H       
  39 H39            2.6155     3.5337     2.5356 H       
  40 H40            3.0305     3.7724     0.8213 H       
  41 H41            2.2199     5.0707     1.7298 H       
  42 H42            0.3764    -2.5769     1.1423 H       
  43 H43            0.7901    -2.3382    -0.5724 H       
  44 H44            2.7823    -2.4853     1.7355 H       
  45 H45            2.4642    -3.7788     0.5548 H       
  46 H46            3.1960    -2.2466     0.0208 H       
  47 H47          -10.1485     4.7925     0.3320 H       
  48 H48          -11.7786     2.8788     1.3055 H       
  49 H49          -10.2764     0.8260     1.9298 H       
@<TRIPOS>BOND
   1    1    2 ar
   2    1   13 1
   3    1    6 ar
   4    2    3 ar
   5    2   14 1
   6    3    4 ar
   7    3   29 1
   8    4    5 ar
   9    4    7 ar
  10    5    6 ar
  11    5   10 ar
  12    6   30 1
  13    7    8 ar
  14    8    9 ar
  15    8   31 1
  16    9   10 ar
  17   10   11 1
  18   11   12 1
  19   11   32 1
  20   12   15 ar
  21   12   19 ar
  22   13   21 1
  23   14   23 1
  24   15   16 ar
  25   15   33 1
  26   16   17 ar
  27   16   20 1
  28   17   18 ar
  29   17   34 1
  30   18   19 ar
  31   18   35 1
  32   19   36 1
  33   20   25 2
  34   20   28 1
  35   21   22 1
  36   21   37 1
  37   21   38 1
  38   22   39 1
  39   22   40 1
  40   22   41 1
  41   23   24 1
  42   23   42 1
  43   23   43 1
  44   24   44 1
  45   24   45 1
  46   24   46 1
  47   25   26 1
  48   25   47 1
  49   26   27 2
  50   26   48 1
  51   27   28 1
  52   27   49 1

#	End of record

