#	Name: ASD00450026
#	Creating user name:	WinNT
#	Creation time:	15. 06. 2019 18:36

#	Modifying user name:	WinNT
#	Modification time:	15. 06. 2019 18:36

#	Program:	/corina/corina34_cracker 3.40 0067  02.08.2006

@<TRIPOS>MOLECULE
ASD00450026
  51   53    0    0    0
SMALL
NO_CHARGES


@<TRIPOS>ATOM
   1 C1             2.4427     0.9850     0.1786 C.ar    
   2 C2             2.5078    -0.3492     0.5539 C.ar    
   3 C3             1.9133    -1.3223    -0.2394 C.ar    
   4 C4             1.2579    -0.9631    -1.4018 C.ar    
   5 C5             1.1911     0.3640    -1.7787 C.ar    
   6 C6             1.7834     1.3428    -0.9891 C.ar    
   7 N7             1.7152     2.6849    -1.3705 N.pl3   
   8 C8             2.7651     3.5556    -1.0573 C.ar    
   9 C9             4.0700     3.0819    -1.0109 C.ar    
  10 C10            2.5031     4.8949    -0.7983 C.ar    
  11 C11            3.5390     5.7537    -0.4893 C.ar    
  12 C12            4.8428     5.2787    -0.4378 C.ar    
  13 C13            5.1056     3.9410    -0.7018 C.ar    
  14 C14            6.8626     8.6222     0.5150 C.ar    
  15 C15            6.8559     9.9213     0.0455 C.ar    
  16 C16            8.0122     7.8513     0.4043 C.ar    
  17 C17            9.1525     8.3890    -0.1785 C.ar    
  18 C18            9.1404     9.6881    -0.6462 C.ar    
  19 C19            7.9932    10.4544    -0.5347 C.ar    
  20 N20            3.1719    -0.7142     1.7302 N.am    
  21 C21            2.7379    -1.7679     2.4499 C.2     
  22 C22            3.5195    -2.2327     3.6516 C.3     
  23 O23            1.7184    -2.3419     2.1304 O.2     
  24 N24            5.8941     6.1506    -0.1247 N.pl3   
  25 C25            6.9358     5.7173     0.6635 C.2     
  26 N26            8.0219     6.5352     0.8796 N.pl3   
  27 N27            6.8941     4.5325     1.2054 N.2     
  28 Cl28           7.9812    12.0872    -1.1243 Cl      
  29 C29           10.3774    10.2723    -1.2783 C.3     
  30 F30           11.3980     9.3154    -1.2771 F       
  31 F31           10.0942    10.6504    -2.5951 F       
  32 F32           10.7885    11.3934    -0.5494 F       
  33 H33            2.9003     1.7438     0.7960 H       
  34 H34            1.9637    -2.3609     0.0524 H       
  35 H35            0.7973    -1.7218    -2.0171 H       
  36 H36            0.6785     0.6415    -2.6879 H       
  37 H37            0.9401     3.0133    -1.8524 H       
  38 H38            4.2744     2.0415    -1.2162 H       
  39 H39            1.4891     5.2644    -0.8391 H       
  40 H40            3.3353     6.7950    -0.2880 H       
  41 H41            6.1202     3.5726    -0.6654 H       
  42 H42            5.9760     8.2080     0.9718 H       
  43 H43            5.9620    10.5213     0.1313 H       
  44 H44           10.0481     7.7916    -0.2654 H       
  45 H45            3.9446    -0.2089     2.0276 H       
  46 H46            4.3977    -1.6002     3.7808 H       
  47 H47            2.8916    -2.1687     4.5403 H       
  48 H48            3.8344    -3.2656     3.5029 H       
  49 H49            5.8876     7.0595    -0.4634 H       
  50 H50            8.7939     6.1992     1.3613 H       
  51 H51            7.6585     4.1984     1.7003 H       
@<TRIPOS>BOND
   1    1    2 ar
   2    1    6 ar
   3    1   33 1
   4    2    3 ar
   5    2   20 1
   6    3    4 ar
   7    3   34 1
   8    4    5 ar
   9    4   35 1
  10    5    6 ar
  11    5   36 1
  12    6    7 1
  13    7    8 1
  14    7   37 1
  15    8   10 ar
  16    8    9 ar
  17    9   13 ar
  18    9   38 1
  19   10   11 ar
  20   10   39 1
  21   11   12 ar
  22   11   40 1
  23   12   13 ar
  24   12   24 1
  25   13   41 1
  26   14   16 ar
  27   14   15 ar
  28   14   42 1
  29   15   19 ar
  30   15   43 1
  31   16   17 ar
  32   16   26 1
  33   17   18 ar
  34   17   44 1
  35   18   19 ar
  36   18   29 1
  37   19   28 1
  38   20   21 am
  39   20   45 1
  40   21   22 1
  41   21   23 2
  42   22   46 1
  43   22   47 1
  44   22   48 1
  45   24   25 1
  46   24   49 1
  47   25   26 1
  48   25   27 2
  49   26   50 1
  50   27   51 1
  51   29   30 1
  52   29   31 1
  53   29   32 1

#	End of record

