#	Name: ASD03092529
#	Creating user name:	WinNT
#	Creation time:	15. 06. 2019 20:32

#	Modifying user name:	WinNT
#	Modification time:	15. 06. 2019 20:32

#	Program:	/corina/corina34_cracker 3.40 0067  02.08.2006

@<TRIPOS>MOLECULE
ASD03092529
  36   38    0    0    0
SMALL
NO_CHARGES


@<TRIPOS>ATOM
   1 C1            -0.0165     1.3623     0.0095 C.2     
   2 C2             0.0021    -0.0041     0.0020 C.2     
   3 C3             1.2719    -0.5305    -0.0129 C.2     
   4 C4             2.2604     0.3715    -0.0175 C.2     
   5 S5             1.6372     1.9597    -0.0030 S.3     
   6 C6            -1.2218     2.1963     0.0200 C.2     
   7 O7            -2.3219     1.6758     0.0226 O.2     
   8 N8            -1.1118     3.5395     0.0268 N.am    
   9 C9            -2.3166     4.3731     0.0372 C.3     
  10 N10           -0.8444     9.8042    -0.2138 N.pl3   
  11 C11           -0.8067     9.9742    -1.5710 C.2     
  12 C12           -1.1223     8.8231    -2.1853 C.2     
  13 C13           -1.3834     7.8351    -1.1357 C.ar    
  14 C14           -1.7493     6.4876    -1.1405 C.ar    
  15 C15           -1.9212     5.8273     0.0432 C.ar    
  16 C16           -1.7350     6.4853     1.2514 C.ar    
  17 C17           -1.3745     7.8145     1.2792 C.ar    
  18 C18           -1.1940     8.5066     0.0859 C.ar    
  19 C19           -0.4625    11.2629    -2.2722 C.3     
  20 C20            3.7281     0.0300    -0.0334 C.3     
  21 H21           -0.8919    -0.6100     0.0079 H       
  22 H22            1.4581    -1.5943    -0.0201 H       
  23 H23           -0.2350     3.9544     0.0247 H       
  24 H24           -2.9121     4.1621    -0.8510 H       
  25 H25           -2.9033     4.1524     0.9289 H       
  26 H26           -0.6498    10.4939     0.4398 H       
  27 H27           -1.1739     8.6569    -3.2512 H       
  28 H28           -1.8967     5.9695    -2.0765 H       
  29 H29           -1.8747     5.9498     2.1788 H       
  30 H30           -1.2324     8.3177     2.2242 H       
  31 H31            0.6124    11.3052    -2.4477 H       
  32 H32           -0.9884    11.3094    -3.2257 H       
  33 H33           -0.7625    12.1063    -1.6503 H       
  34 H34            4.0721    -0.0468    -1.0648 H       
  35 H35            4.2886     0.8118     0.4793 H       
  36 H36            3.8852    -0.9219     0.4739 H       
@<TRIPOS>BOND
   1    1    2 2
   2    1    5 1
   3    1    6 1
   4    2    3 1
   5    2   21 1
   6    3    4 2
   7    3   22 1
   8    4    5 1
   9    4   20 1
  10    6    7 2
  11    6    8 am
  12    8    9 1
  13    8   23 1
  14    9   15 1
  15    9   24 1
  16    9   25 1
  17   10   11 1
  18   10   18 1
  19   10   26 1
  20   11   12 2
  21   11   19 1
  22   12   13 1
  23   12   27 1
  24   13   14 ar
  25   13   18 ar
  26   14   15 ar
  27   14   28 1
  28   15   16 ar
  29   16   17 ar
  30   16   29 1
  31   17   18 ar
  32   17   30 1
  33   19   31 1
  34   19   32 1
  35   19   33 1
  36   20   34 1
  37   20   35 1
  38   20   36 1

#	End of record

