#	Name: ASD00311028
#	Creating user name:	WinNT
#	Creation time:	15. 06. 2019 18:34

#	Modifying user name:	WinNT
#	Modification time:	15. 06. 2019 18:34

#	Program:	/corina/corina34_cracker 3.40 0067  02.08.2006

@<TRIPOS>MOLECULE
ASD00311028
  35   37    0    0    0
SMALL
NO_CHARGES


@<TRIPOS>ATOM
   1 C1            -0.0887     1.2339     0.0374 C.ar    
   2 C2             0.1069    -0.0814    -0.3553 C.ar    
   3 C3             1.3780    -0.6162    -0.3990 C.ar    
   4 C4             2.4735     0.1633    -0.0488 C.ar    
   5 C5             2.2789     1.4961     0.3490 C.ar    
   6 C6             0.9844     2.0225     0.3882 C.ar    
   7 C7             3.2399     3.7590     1.0154 C.2     
   8 C8             3.4325     2.3346     0.7238 C.2     
   9 C9             5.2119     6.7422     2.0070 C.ar    
  10 C10            4.1008     5.9563     1.6509 C.ar    
  11 C11            4.2944     4.5254     1.3580 C.2     
  12 C12            5.0451     8.0671     2.2802 C.ar    
  13 C13            3.7470     8.6086     2.1947 C.ar    
  14 C14            2.6667     7.7632     1.8307 C.ar    
  15 N15            2.8869     6.4735     1.5739 N.ar    
  16 O16            4.5448     1.8446     0.7911 O.2     
  17 C17            1.3712     8.3072     1.7462 C.ar    
  18 C18            1.1746     9.6268     2.0131 C.ar    
  19 C19            2.2375    10.4544     2.3703 C.ar    
  20 C20            3.5051     9.9644     2.4634 C.ar    
  21 N21            3.7537    -0.3726    -0.0915 N.pl3   
  22 H22           -1.0876     1.6435     0.0640 H       
  23 H23           -0.7414    -0.6915    -0.6285 H       
  24 H24            1.5215    -1.6418    -0.7054 H       
  25 H25            0.8261     3.0464     0.6930 H       
  26 H26            2.2530     4.1937     0.9556 H       
  27 H27            6.1936     6.2961     2.0680 H       
  28 H28            5.2812     4.0907     1.4177 H       
  29 H29            5.8862     8.6860     2.5555 H       
  30 H30            0.5366     7.6797     1.4704 H       
  31 H31            0.1789    10.0397     1.9466 H       
  32 H32            2.0535    11.4983     2.5768 H       
  33 H33            4.3199    10.6164     2.7416 H       
  34 H34            3.8796    -1.3329    -0.0376 H       
  35 H35            4.5222     0.2133    -0.1753 H       
@<TRIPOS>BOND
   1    1    2 ar
   2    1    6 ar
   3    1   22 1
   4    2    3 ar
   5    2   23 1
   6    3    4 ar
   7    3   24 1
   8    4    5 ar
   9    4   21 1
  10    5    6 ar
  11    5    8 1
  12    6   25 1
  13    7    8 1
  14    7   11 2
  15    7   26 1
  16    8   16 2
  17    9   10 ar
  18    9   12 ar
  19    9   27 1
  20   10   11 1
  21   10   15 ar
  22   11   28 1
  23   12   13 ar
  24   12   29 1
  25   13   14 ar
  26   13   20 ar
  27   14   15 ar
  28   14   17 ar
  29   17   18 ar
  30   17   30 1
  31   18   19 ar
  32   18   31 1
  33   19   20 ar
  34   19   32 1
  35   20   33 1
  36   21   34 1
  37   21   35 1

#	End of record

