#	Name: ASD08170101
#	Creating user name:	WinNT
#	Creation time:	15. 06. 2019 21:17

#	Modifying user name:	WinNT
#	Modification time:	15. 06. 2019 21:17

#	Program:	/corina/corina34_cracker 3.40 0067  02.08.2006

@<TRIPOS>MOLECULE
ASD08170101
  60   63    0    0    0
SMALL
NO_CHARGES


@<TRIPOS>ATOM
   1 C1            -0.0187     1.5258     0.0104 C.3     
   2 C2             0.0021    -0.0041     0.0020 C.3     
   3 C3             1.3788     3.5031     0.0077 C.3     
   4 C4             2.8278     3.9942    -0.0035 C.3     
   5 C5             2.8475     5.5010     0.0044 C.2     
   6 C6            -1.4117    -0.5257     0.0127 C.2     
   7 S7             2.8476     6.5490    -1.4145 S.3     
   8 C8             2.8747     7.9153    -0.3814 C.2     
   9 N9             2.8811     7.5052     0.8510 N.2     
  10 N10            2.8619     6.2594     1.0543 N.2     
  11 S11           -2.3742    -0.8935     1.4445 S.3     
  12 N12           -2.1404    -0.7792    -1.0277 N.2     
  13 N13           -3.3061    -1.2119    -0.8091 N.2     
  14 C14           -3.6713    -1.3622     0.4283 C.2     
  15 N15           -4.9107    -1.8251     0.8572 N.am    
  16 C16           -5.8536    -2.1613    -0.0452 C.2     
  17 O17           -5.6213    -2.0602    -1.2312 O.2     
  18 N18            2.8882     9.2434    -0.7940 N.am    
  19 C19            2.9094    10.2330     0.1207 C.2     
  20 C20            2.9240    11.6721    -0.3263 C.3     
  21 O21            2.9167     9.9653     1.3036 O.2     
  22 C22           -7.1965    -2.6628     0.4196 C.3     
  23 C23           -8.0610    -2.9663    -0.7770 C.ar    
  24 C24           -8.0431    -4.2285    -1.3403 C.ar    
  25 C25            2.9467    12.5730     0.8815 C.ar    
  26 C26            4.1541    12.9707     1.4245 C.ar    
  27 C27           -8.8360    -4.5068    -2.4379 C.ar    
  28 C28           -9.6471    -3.5230    -2.9719 C.ar    
  29 C29           -9.6657    -2.2611    -2.4080 C.ar    
  30 C30           -8.8761    -1.9840    -1.3077 C.ar    
  31 C31            1.7601    13.0064     1.4429 C.ar    
  32 C32            1.7809    13.8328     2.5508 C.ar    
  33 C33            2.9883    14.2256     3.0975 C.ar    
  34 C34            4.1749    13.7972     2.5325 C.ar    
  35 N35            1.3595     2.0342     0.0000 N.3     
  36 H36           -0.5459     1.8868    -0.8726 H       
  37 H37           -0.5289     1.8773     0.9072 H       
  38 H38            0.5123    -0.3556    -0.8948 H       
  39 H39            0.5293    -0.3651     0.8851 H       
  40 H40            0.8783     3.8683     0.9045 H       
  41 H41            0.8613     3.8779    -0.8754 H       
  42 H42            3.3452     3.6194     0.8796 H       
  43 H43            3.3283     3.6290    -0.9003 H       
  44 H44           -5.0964    -1.9059     1.8058 H       
  45 H45            2.8824     9.4574    -1.7400 H       
  46 H46            3.8109    11.8551    -0.9329 H       
  47 H47            2.0312    11.8782    -0.9167 H       
  48 H48           -7.0615    -3.5694     1.0095 H       
  49 H49           -7.6776    -1.8996     1.0312 H       
  50 H50           -7.4093    -4.9971    -0.9231 H       
  51 H51            5.0811    12.6355     0.9834 H       
  52 H52           -8.8215    -5.4928    -2.8785 H       
  53 H53          -10.2661    -3.7403    -3.8298 H       
  54 H54          -10.2992    -1.4924    -2.8253 H       
  55 H55           -8.8906    -0.9981    -0.8671 H       
  56 H56            0.8168    12.6995     1.0158 H       
  57 H57            0.8539    14.1720     2.9890 H       
  58 H58            3.0045    14.8716     3.9629 H       
  59 H59            5.1182    14.1040     2.9596 H       
  60 H60            1.8883     1.6616     0.7744 H       
@<TRIPOS>BOND
   1    1    2 1
   2    1   35 1
   3    1   36 1
   4    1   37 1
   5    2    6 1
   6    2   38 1
   7    2   39 1
   8    3    4 1
   9    3   35 1
  10    3   40 1
  11    3   41 1
  12    4    5 1
  13    4   42 1
  14    4   43 1
  15    5    7 1
  16    5   10 2
  17    6   11 1
  18    6   12 2
  19    7    8 1
  20    8    9 2
  21    8   18 1
  22    9   10 1
  23   11   14 1
  24   12   13 1
  25   13   14 2
  26   14   15 1
  27   15   16 am
  28   15   44 1
  29   16   17 2
  30   16   22 1
  31   18   19 am
  32   18   45 1
  33   19   20 1
  34   19   21 2
  35   20   25 1
  36   20   46 1
  37   20   47 1
  38   22   23 1
  39   22   48 1
  40   22   49 1
  41   23   24 ar
  42   23   30 ar
  43   24   27 ar
  44   24   50 1
  45   25   26 ar
  46   25   31 ar
  47   26   34 ar
  48   26   51 1
  49   27   28 ar
  50   27   52 1
  51   28   29 ar
  52   28   53 1
  53   29   30 ar
  54   29   54 1
  55   30   55 1
  56   31   32 ar
  57   31   56 1
  58   32   33 ar
  59   32   57 1
  60   33   34 ar
  61   33   58 1
  62   34   59 1
  63   35   60 1

#	End of record

