#	Name: ASD06020053
#	Creating user name:	WinNT
#	Creation time:	15. 06. 2019 21:04

#	Modifying user name:	WinNT
#	Modification time:	15. 06. 2019 21:04

#	Program:	/corina/corina34_cracker 3.40 0067  02.08.2006

@<TRIPOS>MOLECULE
ASD06020053
  39   42    0    0    0
SMALL
NO_CHARGES


@<TRIPOS>ATOM
   1 C1             0.0027    -0.0072     0.0093 C.1     
   2 C2            -0.0172     1.4245     0.0313 C.ar    
   3 C3             1.1900     2.1504     0.0274 C.ar    
   4 C4             1.1544     3.5442     0.0485 C.ar    
   5 C5            -0.0601     4.2036     0.0730 C.ar    
   6 C6            -1.2459     3.4894     0.0767 C.ar    
   7 C7            -1.2316     2.1092     0.0507 C.ar    
   8 N8             0.0185    -1.1430    -0.0081 N.1     
   9 Cl9            2.6348     4.4509     0.0446 Cl      
  10 C10            6.1985     0.2747    -0.0597 C.ar    
  11 C11            4.8501     0.6477    -0.0378 C.ar    
  12 C12            3.8599    -0.3421    -0.0404 C.ar    
  13 C13            4.2970    -1.6914    -0.0656 C.ar    
  14 C14            5.6281    -1.9645    -0.0857 C.ar    
  15 N15            6.5375    -1.0024    -0.0826 N.ar    
  16 S16            4.0609     2.2206    -0.0057 S.3     
  17 C17            2.4846     1.4400     0.0018 C.2     
  18 N18            2.6229     0.1540    -0.0185 N.2     
  19 N19            7.1878     1.2538    -0.0631 N.pl3   
  20 C20           10.1327    -0.7353     0.3098 C.ar    
  21 N21            8.8665    -0.3815     0.2233 N.ar    
  22 C22            8.5241     0.8904     0.0273 C.ar    
  23 C23            9.5258     1.8496    -0.0860 C.ar    
  24 C24           10.8502     1.4341     0.0112 C.ar    
  25 N25           11.1096     0.1426     0.2078 N.ar    
  26 C26           10.4731    -2.1854     0.5384 C.3     
  27 N27           11.8846     2.3508    -0.0954 N.pl3   
  28 H28           -0.0841     5.2832     0.0896 H       
  29 H29           -2.1888     4.0157     0.0962 H       
  30 H30           -2.1614     1.5596     0.0497 H       
  31 H31            3.5768    -2.4961    -0.0683 H       
  32 H32            5.9528    -2.9943    -0.1045 H       
  33 H33            6.9432     2.1902    -0.1286 H       
  34 H34            9.2816     2.8895    -0.2456 H       
  35 H35           10.5816    -2.6889    -0.4223 H       
  36 H36           11.4086    -2.2559     1.0933 H       
  37 H37            9.6753    -2.6603     1.1094 H       
  38 H38           11.6877     3.2897    -0.2389 H       
  39 H39           12.8053     2.0534    -0.0266 H       
@<TRIPOS>BOND
   1    1    2 1
   2    1    8 3
   3    2    3 ar
   4    2    7 ar
   5    3    4 ar
   6    3   17 1
   7    4    5 ar
   8    4    9 1
   9    5    6 ar
  10    5   28 1
  11    6    7 ar
  12    6   29 1
  13    7   30 1
  14   10   11 ar
  15   10   15 ar
  16   10   19 1
  17   11   12 ar
  18   11   16 1
  19   12   13 ar
  20   12   18 1
  21   13   14 ar
  22   13   31 1
  23   14   15 ar
  24   14   32 1
  25   16   17 1
  26   17   18 2
  27   19   22 1
  28   19   33 1
  29   20   21 ar
  30   20   25 ar
  31   20   26 1
  32   21   22 ar
  33   22   23 ar
  34   23   24 ar
  35   23   34 1
  36   24   25 ar
  37   24   27 1
  38   26   35 1
  39   26   36 1
  40   26   37 1
  41   27   38 1
  42   27   39 1

#	End of record

