#	Name: ASD01810025
#	Creating user name:	WinNT
#	Creation time:	15. 06. 2019 19:23

#	Modifying user name:	WinNT
#	Modification time:	15. 06. 2019 19:23

#	Program:	/corina/corina34_cracker 3.40 0067  02.08.2006

@<TRIPOS>MOLECULE
ASD01810025
  54   58    0    0    0
SMALL
NO_CHARGES


@<TRIPOS>ATOM
   1 N1            -0.0163     1.3478     0.0095 N.am    
   2 C2             0.0021    -0.0041     0.0020 C.2     
   3 C3            -1.2677    -0.7369    -0.3571 C.3     
   4 C4            -2.5160    -0.1235     0.2727 C.3     
   5 C5            -2.5122     1.3734     0.1209 C.ar    
   6 C6            -1.2661     1.9811     0.0316 C.ar    
   7 C7            -3.6304     2.1619     0.0680 C.ar    
   8 C8            -3.5033     3.5492    -0.0491 C.ar    
   9 C9            -2.2639     4.1486    -0.0994 C.ar    
  10 C10           -1.1112     3.3588    -0.0514 C.ar    
  11 C11            0.9571     2.3083     0.0053 C.ar    
  12 C12            0.3360     3.5843    -0.0414 C.ar    
  13 C13            1.0861     4.7593    -0.0670 C.ar    
  14 C14            2.4676     4.6295    -0.0388 C.ar    
  15 C15            3.0795     3.3811     0.0131 C.ar    
  16 C16            2.3459     2.2028     0.0388 C.ar    
  17 C17           -4.7730     4.3588    -0.1238 C.3     
  18 N18           -4.5083     5.7660     0.1879 N.3     
  19 C19           -3.4199     6.2790    -0.6594 C.3     
  20 C20           -2.1083     5.6437    -0.1979 C.3     
  21 O21            1.0140    -0.6130     0.2768 O.2     
  22 O22            3.2411     5.7485    -0.0629 O.3     
  23 O23            4.4373     3.3131     0.0414 O.3     
  24 C24            2.5627     7.0050    -0.1166 C.3     
  25 C25            5.0207     2.0097     0.0945 C.3     
  26 C26           -4.9986     1.5340     0.1356 C.3     
  27 O27           -5.4228     1.4457     1.5214 O.3     
  28 C28           -6.6290     0.9057     1.7563 C.2     
  29 C29           -7.1364     0.7810     3.1699 C.3     
  30 O30           -7.3080     0.5198     0.8345 O.2     
  31 H31           -1.3822    -0.7283    -1.4410 H       
  32 H32           -1.1805    -1.7715    -0.0252 H       
  33 H33           -3.4011    -0.5311    -0.2157 H       
  34 H34           -2.5439    -0.3763     1.3326 H       
  35 H35            0.6123     5.7291    -0.1075 H       
  36 H36            2.8335     1.2400     0.0794 H       
  37 H37           -5.1871     4.2854    -1.1294 H       
  38 H38           -5.4944     3.9622     0.5907 H       
  39 H39           -5.3427     6.3232     0.0814 H       
  40 H40           -3.6093     6.0153    -1.6999 H       
  41 H41           -3.3574     7.3627    -0.5604 H       
  42 H42           -1.8368     6.0440     0.7789 H       
  43 H43           -1.3211     5.8787    -0.9143 H       
  44 H44            3.2945     7.8127    -0.1310 H       
  45 H45            1.9534     7.0507    -1.0193 H       
  46 H46            1.9227     7.1102     0.7594 H       
  47 H47            6.1069     2.0982     0.1126 H       
  48 H48            4.6829     1.4969     0.9951 H       
  49 H49            4.7171     1.4397    -0.7837 H       
  50 H50           -5.7071     2.1458    -0.4229 H       
  51 H51           -4.9615     0.5344    -0.2975 H       
  52 H52           -6.3921     1.1791     3.8595 H       
  53 H53           -8.0649     1.3425     3.2735 H       
  54 H54           -7.3192    -0.2688     3.3990 H       
@<TRIPOS>BOND
   1    1    2 am
   2    1   11 1
   3    1    6 1
   4    2    3 1
   5    2   21 2
   6    3    4 1
   7    3   31 1
   8    3   32 1
   9    4    5 1
  10    4   33 1
  11    4   34 1
  12    5    6 ar
  13    5    7 ar
  14    6   10 ar
  15    7    8 ar
  16    7   26 1
  17    8    9 ar
  18    8   17 1
  19    9   10 ar
  20    9   20 1
  21   10   12 1
  22   11   12 ar
  23   11   16 ar
  24   12   13 ar
  25   13   14 ar
  26   13   35 1
  27   14   15 ar
  28   14   22 1
  29   15   16 ar
  30   15   23 1
  31   16   36 1
  32   17   18 1
  33   17   37 1
  34   17   38 1
  35   18   19 1
  36   18   39 1
  37   19   20 1
  38   19   40 1
  39   19   41 1
  40   20   42 1
  41   20   43 1
  42   22   24 1
  43   23   25 1
  44   24   44 1
  45   24   45 1
  46   24   46 1
  47   25   47 1
  48   25   48 1
  49   25   49 1
  50   26   27 1
  51   26   50 1
  52   26   51 1
  53   27   28 1
  54   28   29 1
  55   28   30 2
  56   29   52 1
  57   29   53 1
  58   29   54 1

#	End of record

