#	Name: ASD01880220
#	Creating user name:	WinNT
#	Creation time:	15. 06. 2019 19:40

#	Modifying user name:	WinNT
#	Modification time:	15. 06. 2019 19:40

#	Program:	/corina/corina34_cracker 3.40 0067  02.08.2006

@<TRIPOS>MOLECULE
ASD01880220
  50   52    0    0    0
SMALL
NO_CHARGES


@<TRIPOS>ATOM
   1 C1             0.8400     1.4482    -0.1081 C.3     
   2 C2             0.6308    -0.0440    -0.0846 C.ar    
   3 C3             0.8533    -0.7539     1.0808 C.ar    
   4 C4             0.6622    -2.1219     1.1048 C.ar    
   5 C5             0.2467    -2.7833    -0.0417 C.ar    
   6 C6             0.0241    -2.0687    -1.2098 C.ar    
   7 C7             0.2112    -0.7001    -1.2271 C.ar    
   8 O8             0.0585    -4.1290    -0.0207 O.3     
   9 C9             0.1908    -4.7830     1.2430 C.3     
  10 N10            2.2255     1.7413    -0.4833 N.am    
  11 C11            2.7165     1.9388    -1.8557 C.3     
  12 C12            4.2215     2.2130    -1.6710 C.3     
  13 O13            4.4187     2.1418    -0.2291 O.3     
  14 C14            3.2510     1.8787     0.3682 C.2     
  15 C15            4.5812     3.6053    -2.1935 C.3     
  16 O16            3.1327     1.7664     1.5723 O.2     
  17 C17           -0.6227    -6.0788     1.2344 C.3     
  18 C18            1.6642    -5.1075     1.4975 C.3     
  19 C19           -2.0961    -5.7542     0.9799 C.3     
  20 C20           -2.9096    -7.0500     0.9712 C.3     
  21 C21           -2.3914    -7.9701    -0.1359 C.3     
  22 C22           -0.9181    -8.2947     0.1186 C.3     
  23 C23           -0.1045    -6.9989     0.1272 C.3     
  24 H24            0.1637     1.8986    -0.8347 H       
  25 H25            0.6367     1.8592     0.8808 H       
  26 H26            1.1771    -0.2386     1.9730 H       
  27 H27            0.8365    -2.6760     2.0153 H       
  28 H28           -0.2994    -2.5814    -2.1036 H       
  29 H29            0.0380    -0.1433    -2.1362 H       
  30 H30           -0.1784    -4.1275     2.0317 H       
  31 H31            2.5614     1.0391    -2.4511 H       
  32 H32            2.2254     2.7948    -2.3185 H       
  33 H33            4.8137     1.4496    -2.1757 H       
  34 H34            4.0146     4.3571    -1.6441 H       
  35 H35            5.6479     3.7811    -2.0547 H       
  36 H36            4.3373     3.6696    -3.2539 H       
  37 H37           -0.5218    -6.5776     2.1983 H       
  38 H38            2.0333    -5.7630     0.7088 H       
  39 H39            2.2437    -4.1844     1.5037 H       
  40 H40            1.7651    -5.6063     2.4614 H       
  41 H41           -2.4653    -5.0987     1.7686 H       
  42 H42           -2.1970    -5.2554     0.0160 H       
  43 H43           -2.8087    -7.5488     1.9351 H       
  44 H44           -3.9593    -6.8188     0.7899 H       
  45 H45           -2.9710    -8.8933    -0.1421 H       
  46 H46           -2.4924    -7.4713    -1.0998 H       
  47 H47           -0.8171    -8.7935     1.0825 H       
  48 H48           -0.5489    -8.9502    -0.6702 H       
  49 H49           -0.2055    -6.5001    -0.8367 H       
  50 H50            0.9451    -7.2301     0.3085 H       
@<TRIPOS>BOND
   1    1    2 1
   2    1   10 1
   3    1   24 1
   4    1   25 1
   5    2    3 ar
   6    2    7 ar
   7    3    4 ar
   8    3   26 1
   9    4    5 ar
  10    4   27 1
  11    5    6 ar
  12    5    8 1
  13    6    7 ar
  14    6   28 1
  15    7   29 1
  16    8    9 1
  17    9   17 1
  18    9   18 1
  19    9   30 1
  20   10   11 1
  21   10   14 am
  22   11   12 1
  23   11   31 1
  24   11   32 1
  25   12   13 1
  26   12   15 1
  27   12   33 1
  28   13   14 1
  29   14   16 2
  30   15   34 1
  31   15   35 1
  32   15   36 1
  33   17   19 1
  34   17   23 1
  35   17   37 1
  36   18   38 1
  37   18   39 1
  38   18   40 1
  39   19   20 1
  40   19   41 1
  41   19   42 1
  42   20   21 1
  43   20   43 1
  44   20   44 1
  45   21   22 1
  46   21   45 1
  47   21   46 1
  48   22   23 1
  49   22   47 1
  50   22   48 1
  51   23   49 1
  52   23   50 1

#	End of record

