#	Name: ASD01813204
#	Creating user name:	WinNT
#	Creation time:	15. 06. 2019 19:30

#	Modifying user name:	WinNT
#	Modification time:	15. 06. 2019 19:30

#	Program:	/corina/corina34_cracker 3.40 0067  02.08.2006

@<TRIPOS>MOLECULE
ASD01813204
  54   58    0    0    0
SMALL
NO_CHARGES


@<TRIPOS>ATOM
   1 C1            -0.0169     1.3972     0.0097 C.2     
   2 C2             0.0021    -0.0041     0.0020 C.2     
   3 C3             1.1986    -0.6593    -0.0129 C.2     
   4 C4             2.3918     0.0821    -0.0204 C.2     
   5 N5             2.3437     1.4497    -0.0122 N.am    
   6 C6             1.1421     2.0937     0.0024 C.2     
   7 C7             3.6227    -0.5889    -0.0356 C.2     
   8 C8             4.7877     0.1218    -0.0425 C.2     
   9 C9             4.7345     1.5280    -0.0346 C.2     
  10 C10            3.4812     2.1736    -0.0189 C.2     
  11 O11            3.4258     3.3917    -0.0123 O.2     
  12 C12            5.9703     2.3140    -0.0413 C.2     
  13 O13            5.9124     3.6618    -0.0337 O.3     
  14 O14            7.0487     1.7516    -0.0537 O.2     
  15 C15            3.6593    -2.0954    -0.0439 C.3     
  16 N16            3.7787    -2.5747    -1.4274 N.3     
  17 C17            4.0548    -4.0165    -1.4628 C.3     
  18 C18            4.3164    -4.4518    -2.9065 C.3     
  19 C19            3.0893    -4.1270    -3.7628 C.3     
  20 C20            2.7945    -2.6273    -3.6699 C.3     
  21 C21            2.5770    -2.2449    -2.2042 C.3     
  22 C22            3.3636    -4.4985    -5.1973 C.2     
  23 C23            4.3398    -4.0068    -5.9766 C.2     
  24 N24            4.2784    -4.5787    -7.2178 N.pl3   
  25 C25            3.2328    -5.4764    -7.2686 C.ar    
  26 C26            2.6192    -5.4692    -6.0033 C.ar    
  27 C27            2.7373    -6.3100    -8.2659 C.ar    
  28 C28            1.6498    -7.1153    -8.0124 C.ar    
  29 C29            1.0360    -7.1058    -6.7624 C.ar    
  30 C30            1.5170    -6.2910    -5.7572 C.ar    
  31 O31           -0.0373    -7.9075    -6.5288 O.3     
  32 H32           -0.9605     1.9226     0.0170 H       
  33 H33           -0.9233    -0.5609     0.0082 H       
  34 H34            1.2282    -1.7389    -0.0187 H       
  35 H35            1.1156     3.1733     0.0087 H       
  36 H36            5.7393    -0.3889    -0.0536 H       
  37 H37            6.7544     4.1373    -0.0385 H       
  38 H38            4.5153    -2.4412     0.5356 H       
  39 H39            2.7412    -2.4836     0.3971 H       
  40 H40            4.9321    -4.2334    -0.8534 H       
  41 H41            3.1960    -4.5605    -1.0695 H       
  42 H42            5.1835    -3.9184    -3.2959 H       
  43 H43            4.5059    -5.5249    -2.9344 H       
  44 H44            2.2307    -4.6903    -3.3974 H       
  45 H45            3.6377    -2.0651    -4.0714 H       
  46 H46            1.8966    -2.3968    -4.2433 H       
  47 H47            1.7251    -2.7971    -1.8073 H       
  48 H48            2.3809    -1.1750    -2.1332 H       
  49 H49            5.0658    -3.2686    -5.6694 H       
  50 H50            4.8801    -4.3817    -7.9527 H       
  51 H51            3.2054    -6.3251    -9.2390 H       
  52 H52            1.2689    -7.7603    -8.7905 H       
  53 H53            1.0404    -6.2848    -4.7881 H       
  54 H54            0.1925    -8.7840    -6.1910 H       
@<TRIPOS>BOND
   1    1    2 1
   2    1    6 2
   3    1   32 1
   4    2    3 2
   5    2   33 1
   6    3    4 1
   7    3   34 1
   8    4    5 1
   9    4    7 2
  10    5    6 1
  11    5   10 am
  12    6   35 1
  13    7    8 1
  14    7   15 1
  15    8    9 2
  16    8   36 1
  17    9   10 1
  18    9   12 1
  19   10   11 2
  20   12   13 1
  21   12   14 2
  22   13   37 1
  23   15   16 1
  24   15   38 1
  25   15   39 1
  26   16   17 1
  27   16   21 1
  28   17   18 1
  29   17   40 1
  30   17   41 1
  31   18   19 1
  32   18   42 1
  33   18   43 1
  34   19   20 1
  35   19   22 1
  36   19   44 1
  37   20   21 1
  38   20   45 1
  39   20   46 1
  40   21   47 1
  41   21   48 1
  42   22   23 2
  43   22   26 1
  44   23   24 1
  45   23   49 1
  46   24   25 1
  47   24   50 1
  48   25   26 ar
  49   25   27 ar
  50   26   30 ar
  51   27   28 ar
  52   27   51 1
  53   28   29 ar
  54   28   52 1
  55   29   30 ar
  56   29   31 1
  57   30   53 1
  58   31   54 1

#	End of record

