#	Name: ASD02030022
#	Creating user name:	WinNT
#	Creation time:	15. 06. 2019 20:14

#	Modifying user name:	WinNT
#	Modification time:	15. 06. 2019 20:14

#	Program:	/corina/corina34_cracker 3.40 0067  02.08.2006

@<TRIPOS>MOLECULE
ASD02030022
  22   22    0    0    0
SMALL
NO_CHARGES


@<TRIPOS>ATOM
   1 C1            -1.4228     1.5470    -1.1530 C.2     
   2 C2            -1.7226     0.0705    -1.1866 C.3     
   3 O3            -1.3969     2.1818    -2.1807 O.2     
   4 O4            -1.1899     2.1581     0.0194 O.3     
   5 C5            -1.0376     3.5091    -0.0081 C.ar    
   6 C6            -2.1454     4.3288    -0.1690 C.ar    
   7 C7            -1.9903     5.7023    -0.1964 C.ar    
   8 C8            -0.7249     6.2605    -0.0629 C.ar    
   9 C9             0.3806     5.4401     0.0977 C.ar    
  10 C10            0.2242     4.0674     0.1303 C.ar    
  11 O11           -0.5711     7.6116    -0.0903 O.3     
  12 C12            0.7581     8.1163     0.0527 C.3     
  13 F13           -3.0683     6.5013    -0.3535 F       
  14 H14           -1.8874    -0.2433    -2.2173 H       
  15 H15           -0.8800    -0.4809    -0.7693 H       
  16 H16           -2.6170    -0.1321    -0.5976 H       
  17 H17           -3.1286     3.8940    -0.2730 H       
  18 H18            1.3642     5.8739     0.2014 H       
  19 H19            1.0856     3.4290     0.2596 H       
  20 H20            1.1680     7.7942     1.0100 H       
  21 H21            1.3808     7.7342    -0.7562 H       
  22 H22            0.7394     9.2054     0.0135 H       
@<TRIPOS>BOND
   1    1    2 1
   2    1    3 2
   3    1    4 1
   4    2   14 1
   5    2   15 1
   6    2   16 1
   7    4    5 1
   8    5    6 ar
   9    5   10 ar
  10    6    7 ar
  11    6   17 1
  12    7    8 ar
  13    7   13 1
  14    8    9 ar
  15    8   11 1
  16    9   10 ar
  17    9   18 1
  18   10   19 1
  19   11   12 1
  20   12   20 1
  21   12   21 1
  22   12   22 1

#	End of record

