#	Name: ASD02508021
#	Creating user name:	WinNT
#	Creation time:	15. 06. 2019 20:23

#	Modifying user name:	WinNT
#	Modification time:	15. 06. 2019 20:23

#	Program:	/corina/corina34_cracker 3.40 0067  02.08.2006

@<TRIPOS>MOLECULE
ASD02508021
  56   58    0    0    0
SMALL
NO_CHARGES


@<TRIPOS>ATOM
   1 C1            -0.8247     1.4265    -0.1124 C.3     
   2 C2            -0.6885    -0.0368    -0.0400 C.3     
   3 C3             0.0757    -0.4788     1.2194 C.3     
   4 N4             1.4752    -0.2680     0.9845 N.am    
   5 C5             2.1667     0.9846     1.3952 C.3     
   6 C6             1.2397     2.1961     1.1276 C.3     
   7 N7             0.5107     2.0693    -0.1033 N.am    
   8 C8             1.1557     5.3491    -1.1560 C.ar    
   9 C9             0.5327     4.2688    -1.7575 C.ar    
  10 C10            0.6620     6.6276    -1.3469 C.ar    
  11 C11           -0.4575     6.8267    -2.1413 C.ar    
  12 C12           -1.0806     5.7435    -2.7433 C.ar    
  13 C13           -0.5848     4.4660    -2.5507 C.ar    
  14 C14            3.0984    -0.4774    -2.2022 C.ar    
  15 C15            2.1648    -1.2208    -1.5037 C.ar    
  16 C16            2.9565    -0.2908    -3.5633 C.ar    
  17 C17            1.8748    -0.8507    -4.2303 C.ar    
  18 C18            0.9392    -1.5971    -3.5260 C.ar    
  19 C19            1.0868    -1.7801    -2.1650 C.ar    
  20 F20           -1.1913     3.4108    -3.1372 F       
  21 F21            2.2428     5.1543    -0.3778 F       
  22 O22           -0.9436     8.0817    -2.3293 O.3     
  23 C23           -2.0993     8.2122    -3.1595 C.3     
  24 N24            1.7279    -0.6632    -5.6091 N.am    
  25 O25            3.9256    -0.6572    -5.9131 O.2     
  26 C26            2.8165    -0.6127    -6.4021 C.2     
  27 C27            2.6558    -0.5009    -7.8963 C.3     
  28 S28            2.3495    -1.4566     0.2327 S.o2    
  29 O29            3.7150    -1.1989     0.5296 O.2     
  30 O30            1.7053    -2.6849     0.5416 O.2     
  31 S31            1.1630     2.6415    -1.5138 S.o2    
  32 O32            2.5580     2.7820    -1.2827 O.2     
  33 O33            0.6248     1.8421    -2.5580 O.2     
  34 H34           -1.3481     1.6951    -1.0299 H       
  35 H35           -1.4001     1.7780     0.7441 H       
  36 H36           -1.6817    -0.4857    -0.0284 H       
  37 H37           -0.1524    -0.3875    -0.9219 H       
  38 H38           -0.2481     0.1149     2.0743 H       
  39 H39           -0.1107    -1.5353     1.4118 H       
  40 H40            2.4048     0.9367     2.4578 H       
  41 H41            3.0865     1.0969     0.8212 H       
  42 H42            0.5301     2.2855     1.9501 H       
  43 H43            1.8454     3.1014     1.0871 H       
  44 H44            1.1480     7.4701    -0.8774 H       
  45 H45           -1.9526     5.8971    -3.3618 H       
  46 H46            3.9370    -0.0385    -1.6821 H       
  47 H47            3.6858     0.2902    -4.1082 H       
  48 H48            0.0967    -2.0336    -4.0419 H       
  49 H49            0.3597    -2.3608    -1.6168 H       
  50 H50           -2.3823     9.2627    -3.2259 H       
  51 H51           -1.8754     7.8325    -4.1564 H       
  52 H52           -2.9220     7.6408    -2.7295 H       
  53 H53            0.8426    -0.5695    -5.9943 H       
  54 H54            1.5953    -0.4744    -8.1467 H       
  55 H55            3.1346     0.4138    -8.2459 H       
  56 H56            3.1213    -1.3613    -8.3772 H       
@<TRIPOS>BOND
   1    1    2 1
   2    1    7 1
   3    1   34 1
   4    1   35 1
   5    2    3 1
   6    2   36 1
   7    2   37 1
   8    3    4 1
   9    3   38 1
  10    3   39 1
  11    4    5 1
  12    4   28 am
  13    5    6 1
  14    5   40 1
  15    5   41 1
  16    6    7 1
  17    6   42 1
  18    6   43 1
  19    7   31 am
  20    8    9 ar
  21    8   10 ar
  22    8   21 1
  23    9   31 1
  24    9   13 ar
  25   10   11 ar
  26   10   44 1
  27   11   12 ar
  28   11   22 1
  29   12   13 ar
  30   12   45 1
  31   13   20 1
  32   14   15 ar
  33   14   16 ar
  34   14   46 1
  35   15   28 1
  36   15   19 ar
  37   16   17 ar
  38   16   47 1
  39   17   18 ar
  40   17   24 1
  41   18   19 ar
  42   18   48 1
  43   19   49 1
  44   22   23 1
  45   23   50 1
  46   23   51 1
  47   23   52 1
  48   24   26 am
  49   24   53 1
  50   25   26 2
  51   26   27 1
  52   27   54 1
  53   27   55 1
  54   27   56 1
  55   28   29 2
  56   28   30 2
  57   31   32 2
  58   31   33 2

#	End of record

