#	Name: ASD05213025
#	Creating user name:	WinNT
#	Creation time:	15. 06. 2019 20:57

#	Modifying user name:	WinNT
#	Modification time:	15. 06. 2019 20:57

#	Program:	/corina/corina34_cracker 3.40 0067  02.08.2006

@<TRIPOS>MOLECULE
ASD05213025
  27   29    0    0    0
SMALL
NO_CHARGES


@<TRIPOS>ATOM
   1 S1            -0.0218     1.7577     0.0117 S.3     
   2 C2             0.0021    -0.0041     0.0020 C.2     
   3 C3             1.7090     2.0873    -0.0030 C.2     
   4 N4             2.6491     1.1749    -0.0174 N.2     
   5 C5             3.8676     1.7753    -0.0265 C.ar    
   6 C6             3.6456     3.1623    -0.0168 C.ar    
   7 N7             2.2712     3.3326    -0.0072 N.pl3   
   8 C8             5.1774     1.2886    -0.0427 C.ar    
   9 C9             6.2345     2.1705    -0.0490 C.ar    
  10 C10            6.0096     3.5392    -0.0390 C.ar    
  11 C11            4.7225     4.0359    -0.0230 C.ar    
  12 S12           -1.3858    -1.0024     0.0099 S.3     
  13 C13           -0.3659    -2.4388    -0.0087 C.2     
  14 C14            0.9077    -2.0421    -0.0190 C.2     
  15 N15            1.0751    -0.7325    -0.0178 N.2     
  16 N16           -0.8402    -3.8431    -0.0118 N.pl3   
  17 O17           -0.0358    -4.7575    -0.0248 O.2     
  18 O18           -2.0344    -4.0825    -0.0014 O.2     
  19 C19            7.6468     1.6449    -0.0665 C.3     
  20 F20            8.0701     1.4893    -1.3908 F       
  21 F21            8.4891     2.5494     0.5891 F       
  22 F22            7.6922     0.4083     0.5861 F       
  23 H23            1.7963     4.1783     0.0008 H       
  24 H24            5.3598     0.2241    -0.0498 H       
  25 H25            6.8475     4.2206    -0.0434 H       
  26 H26            4.5541     5.1026    -0.0149 H       
  27 H27            1.7351    -2.7362    -0.0307 H       
@<TRIPOS>BOND
   1    1    2 1
   2    1    3 1
   3    2   12 1
   4    2   15 2
   5    3    4 2
   6    3    7 1
   7    4    5 1
   8    5    6 ar
   9    5    8 ar
  10    6    7 1
  11    6   11 ar
  12    7   23 1
  13    8    9 ar
  14    8   24 1
  15    9   10 ar
  16    9   19 1
  17   10   11 ar
  18   10   25 1
  19   11   26 1
  20   12   13 1
  21   13   14 2
  22   13   16 1
  23   14   15 1
  24   14   27 1
  25   16   17 2
  26   16   18 2
  27   19   20 1
  28   19   21 1
  29   19   22 1

#	End of record

