#	Name: ASD03082044
#	Creating user name:	WinNT
#	Creation time:	15. 06. 2019 20:27

#	Modifying user name:	WinNT
#	Modification time:	15. 06. 2019 20:27

#	Program:	/corina/corina34_cracker 3.40 0067  02.08.2006

@<TRIPOS>MOLECULE
ASD03082044
  54   56    0    0    0
SMALL
NO_CHARGES


@<TRIPOS>ATOM
   1 C1             0.0698     1.2488    -2.4504 C.3     
   2 C2             0.1637    -0.2774    -2.3874 C.3     
   3 N3             1.3806    -0.7231    -3.0779 N.3     
   4 C4             2.5849    -0.1876    -2.4304 C.3     
   5 C5             2.5633     1.3413    -2.4947 C.3     
   6 C6             1.3078     1.8593    -1.7877 C.3     
   7 C7             3.8074     1.8994    -1.8007 C.3     
   8 O8             3.8470     3.3416    -1.9645 O.3     
   9 C9             4.8876     3.9921    -1.4080 C.2     
  10 C10            4.9937     5.4578    -1.5340 C.ar    
  11 O11            5.7385     3.3713    -0.8024 O.2     
  12 C12            4.0959     6.1603    -2.3387 C.ar    
  13 C13            4.1996     7.5312    -2.4523 C.ar    
  14 C14            5.1910     8.2181    -1.7718 C.ar    
  15 C15            6.0886     7.5399    -0.9712 C.ar    
  16 C16            5.9972     6.1576    -0.8388 C.ar    
  17 C17            6.9583     5.4257     0.0193 C.ar    
  18 C18            8.3293     5.5453    -0.2055 C.ar    
  19 C19            9.2195     4.8617     0.5972 C.ar    
  20 C20            8.7542     4.0586     1.6231 C.ar    
  21 C21            7.3952     3.9360     1.8509 C.ar    
  22 C22            6.4955     4.6193     1.0585 C.ar    
  23 C23            1.4336    -2.1890    -3.1580 C.3     
  24 C24            0.3010    -2.6919    -4.0553 C.3     
  25 C25            0.3561    -4.2187    -4.1386 C.3     
  26 N26           -0.7284    -4.7003    -4.9978 N.2     
  27 N27           -0.4912    -5.2887    -5.9257 N.1     
  28 N28           -0.2540    -5.8770    -6.8535 N.pl3   
  29 H29            0.0198     1.5677    -3.4916 H       
  30 H30           -0.8254     1.5804    -1.9243 H       
  31 H31            0.1997    -0.5963    -1.3457 H       
  32 H32           -0.7094    -0.7152    -2.8712 H       
  33 H33            2.6096    -0.5069    -1.3885 H       
  34 H34            3.4704    -0.5603    -2.9454 H       
  35 H35            2.5526     1.6616    -3.5366 H       
  36 H36            1.2661     2.9455    -1.8687 H       
  37 H37            1.3371     1.5723    -0.7366 H       
  38 H38            3.7715     1.6552    -0.7390 H       
  39 H39            4.6998     1.4586    -2.2450 H       
  40 H40            3.3205     5.6310    -2.8725 H       
  41 H41            3.5035     8.0722    -3.0762 H       
  42 H42            5.2628     9.2914    -1.8681 H       
  43 H43            6.8594     8.0828    -0.4443 H       
  44 H44            8.6936     6.1714    -1.0065 H       
  45 H45           10.2815     4.9535     0.4241 H       
  46 H46            9.4547     3.5249     2.2483 H       
  47 H47            7.0378     3.3073     2.6531 H       
  48 H48            5.4348     4.5228     1.2373 H       
  49 H49            2.3921    -2.4956    -3.5765 H       
  50 H50            1.3211    -2.6116    -2.1596 H       
  51 H51           -0.6576    -2.3853    -3.6367 H       
  52 H52            0.4134    -2.2693    -5.0536 H       
  53 H53            1.3147    -4.5253    -4.5572 H       
  54 H54            0.2437    -4.6414    -3.1402 H       
@<TRIPOS>BOND
   1    1    2 1
   2    1    6 1
   3    1   29 1
   4    1   30 1
   5    2    3 1
   6    2   31 1
   7    2   32 1
   8    3    4 1
   9    3   23 1
  10    4    5 1
  11    4   33 1
  12    4   34 1
  13    5    6 1
  14    5    7 1
  15    5   35 1
  16    6   36 1
  17    6   37 1
  18    7    8 1
  19    7   38 1
  20    7   39 1
  21    8    9 1
  22    9   10 1
  23    9   11 2
  24   10   12 ar
  25   10   16 ar
  26   12   13 ar
  27   12   40 1
  28   13   14 ar
  29   13   41 1
  30   14   15 ar
  31   14   42 1
  32   15   16 ar
  33   15   43 1
  34   16   17 1
  35   17   18 ar
  36   17   22 ar
  37   18   19 ar
  38   18   44 1
  39   19   20 ar
  40   19   45 1
  41   20   21 ar
  42   20   46 1
  43   21   22 ar
  44   21   47 1
  45   22   48 1
  46   23   24 1
  47   23   49 1
  48   23   50 1
  49   24   25 1
  50   24   51 1
  51   24   52 1
  52   25   26 1
  53   25   53 1
  54   25   54 1
  55   26   27 2
  56   27   28 2

#	End of record

