#	Name: ASD07931910
#	Creating user name:	WinNT
#	Creation time:	15. 06. 2019 21:13

#	Modifying user name:	WinNT
#	Modification time:	15. 06. 2019 21:13

#	Program:	/corina/corina34_cracker 3.40 0067  02.08.2006

@<TRIPOS>MOLECULE
ASD07931910
  41   42    0    0    0
SMALL
NO_CHARGES


@<TRIPOS>ATOM
   1 C1            -0.0187     1.5258     0.0104 C.3     
   2 C2             0.0021    -0.0041     0.0020 C.3     
   3 N3             0.6059    -0.4925     1.2489 N.3     
   4 C4             0.6428    -1.9607     1.2762 C.3     
   5 O5             0.4303    -2.0886     3.7060 O.3     
   6 C6             1.2768    -2.4307     2.5869 C.3     
   7 C7             1.3679    -3.9725     2.6178 C.3     
   8 C8             1.0714    -4.3368     4.0897 C.3     
   9 C9             0.8362    -2.9720     4.7741 C.3     
  10 C10           -0.2563    -3.0839     5.8060 C.ar    
  11 C11            0.0649    -3.1405     7.1494 C.ar    
  12 C12           -0.9372    -3.2432     8.0959 C.ar    
  13 C13           -2.2607    -3.2888     7.6992 C.ar    
  14 C14           -2.5820    -3.2313     6.3560 C.ar    
  15 C15           -1.5800    -3.1243     5.4096 C.ar    
  16 C16           -3.3531    -3.4018     8.7311 C.3     
  17 F17           -3.7584    -2.1215     9.1233 F       
  18 F18           -4.4423    -4.0885     8.1839 F       
  19 F19           -2.8729    -4.1002     9.8441 F       
  20 C20           -0.1834    -5.2072     4.1843 C.3     
  21 O21            1.3220     2.0204     0.0003 O.3     
  22 H22           -0.5459     1.8868    -0.8726 H       
  23 H23           -0.5289     1.8773     0.9072 H       
  24 H24           -1.0175    -0.3808    -0.0798 H       
  25 H25            0.5883    -0.3548    -0.8473 H       
  26 H26            1.5284    -0.1051     1.3799 H       
  27 H27           -0.3723    -2.3511     1.2032 H       
  28 H28            1.2334    -2.3251     0.4357 H       
  29 H29            2.2659    -1.9896     2.7105 H       
  30 H30            0.6206    -4.4125     1.9574 H       
  31 H31            2.3683    -4.3017     2.3369 H       
  32 H32            1.9252    -4.8460     4.5366 H       
  33 H33            1.7577    -2.6139     5.2331 H       
  34 H34            1.0989    -3.1048     7.4593 H       
  35 H35           -0.6862    -3.2881     9.1454 H       
  36 H36           -3.6159    -3.2674     6.0460 H       
  37 H37           -1.8312    -3.0756     4.3604 H       
  38 H38           -0.0230    -6.1364     3.6375 H       
  39 H39           -0.3914    -5.4324     5.2303 H       
  40 H40           -1.0296    -4.6729     3.7524 H       
  41 H41            1.3852     2.9853     0.0049 H       
@<TRIPOS>BOND
   1    1    2 1
   2    1   21 1
   3    1   22 1
   4    1   23 1
   5    2    3 1
   6    2   24 1
   7    2   25 1
   8    3    4 1
   9    3   26 1
  10    4    6 1
  11    4   27 1
  12    4   28 1
  13    5    6 1
  14    5    9 1
  15    6    7 1
  16    6   29 1
  17    7    8 1
  18    7   30 1
  19    7   31 1
  20    8    9 1
  21    8   20 1
  22    8   32 1
  23    9   10 1
  24    9   33 1
  25   10   11 ar
  26   10   15 ar
  27   11   12 ar
  28   11   34 1
  29   12   13 ar
  30   12   35 1
  31   13   14 ar
  32   13   16 1
  33   14   15 ar
  34   14   36 1
  35   15   37 1
  36   16   17 1
  37   16   18 1
  38   16   19 1
  39   20   38 1
  40   20   39 1
  41   20   40 1
  42   21   41 1

#	End of record

