#	Name: ASD02562089
#	Creating user name:	WinNT
#	Creation time:	15. 06. 2019 20:25

#	Modifying user name:	WinNT
#	Modification time:	15. 06. 2019 20:25

#	Program:	/corina/corina34_cracker 3.40 0067  02.08.2006

@<TRIPOS>MOLECULE
ASD02562089
  48   50    0    0    0
SMALL
NO_CHARGES


@<TRIPOS>ATOM
   1 C1             0.0919     1.8461    -0.7884 C.ar    
   2 N2             0.5262     0.9108    -1.6179 N.ar    
   3 C3            -0.1957     0.5395    -2.6664 C.ar    
   4 C4            -1.4225     1.1441    -2.8909 C.ar    
   5 C5            -1.8529     2.1310    -1.9932 C.ar    
   6 N6            -1.0763     2.4459    -0.9628 N.ar    
   7 N7            -3.0745     2.7662    -2.1758 N.pl3   
   8 N8             0.8794     2.2043     0.2971 N.pl3   
   9 C9            -3.5442     3.6612    -1.2174 C.ar    
  10 C10            2.0847     1.5453     0.5312 C.ar    
  11 C11            3.2890     2.2265     0.3792 C.ar    
  12 C12           -4.3048     4.7597    -1.6069 C.ar    
  13 C13           -4.7709     5.6459    -0.6624 C.ar    
  14 C14           -4.4795     5.4415     0.6896 C.ar    
  15 C15           -3.7151     4.3370     1.0774 C.ar    
  16 C16           -3.2566     3.4518     0.1282 C.ar    
  17 C17            2.0807     0.2093     0.9218 C.ar    
  18 C18            3.2687    -0.4452     1.1544 C.ar    
  19 C19            4.4823     0.2346     0.9976 C.ar    
  20 C20            4.4816     1.5797     0.6098 C.ar    
  21 C21            3.2869     3.6744    -0.0388 C.3     
  22 C22            0.7735    -0.5214     1.0907 C.3     
  23 C23           -4.9623     6.3617     1.6749 C.1     
  24 N24           -5.3454     7.0916     2.4565 N.1     
  25 C25            5.7537    -0.4603     1.2455 C.2     
  26 C26            6.9230     0.1972     1.0938 C.2     
  27 C27            8.1616    -0.4798     1.3352 C.1     
  28 N28            9.1442    -1.0168     1.5268 N.1     
  29 N29           -2.2140     0.7778    -3.9899 N.pl3   
  30 H30            0.1680    -0.2245    -3.3375 H       
  31 H31           -3.6005     2.5865    -2.9707 H       
  32 H32            0.5907     2.9133     0.8928 H       
  33 H33           -4.5292     4.9172    -2.6515 H       
  34 H34           -5.3608     6.4984    -0.9654 H       
  35 H35           -3.4882     4.1762     2.1210 H       
  36 H36           -2.6662     2.5984     0.4270 H       
  37 H37            3.2647    -1.4817     1.4578 H       
  38 H38            5.4157     2.1079     0.4877 H       
  39 H39            3.2497     4.3083     0.8471 H       
  40 H40            4.1941     3.8910    -0.6028 H       
  41 H41            2.4153     3.8710    -0.6631 H       
  42 H42            0.5391    -1.0632     0.1744 H       
  43 H43            0.8553    -1.2257     1.9185 H       
  44 H44           -0.0193     0.1964     1.3013 H       
  45 H45            5.7524    -1.4968     1.5490 H       
  46 H46            6.9244     1.2336     0.7903 H       
  47 H47           -1.9045     0.0936    -4.6039 H       
  48 H48           -3.0707     1.2086    -4.1358 H       
@<TRIPOS>BOND
   1    1    2 ar
   2    1    8 1
   3    1    6 ar
   4    2    3 ar
   5    3    4 ar
   6    3   30 1
   7    4    5 ar
   8    4   29 1
   9    5    6 ar
  10    5    7 1
  11    7    9 1
  12    7   31 1
  13    8   10 1
  14    8   32 1
  15    9   12 ar
  16    9   16 ar
  17   10   11 ar
  18   10   17 ar
  19   11   21 1
  20   11   20 ar
  21   12   13 ar
  22   12   33 1
  23   13   14 ar
  24   13   34 1
  25   14   15 ar
  26   14   23 1
  27   15   16 ar
  28   15   35 1
  29   16   36 1
  30   17   18 ar
  31   17   22 1
  32   18   19 ar
  33   18   37 1
  34   19   20 ar
  35   19   25 1
  36   20   38 1
  37   21   39 1
  38   21   40 1
  39   21   41 1
  40   22   42 1
  41   22   43 1
  42   22   44 1
  43   23   24 3
  44   25   26 2
  45   25   45 1
  46   26   27 1
  47   26   46 1
  48   27   28 3
  49   29   47 1
  50   29   48 1

#	End of record

