#	Name: ASD01530027
#	Creating user name:	WinNT
#	Creation time:	15. 06. 2019 19:22

#	Modifying user name:	WinNT
#	Modification time:	15. 06. 2019 19:22

#	Program:	/corina/corina34_cracker 3.40 0067  02.08.2006

@<TRIPOS>MOLECULE
ASD01530027
  25   26    0    0    0
SMALL
NO_CHARGES


@<TRIPOS>ATOM
   1 C1            -0.0168     1.3913     0.0097 C.ar    
   2 C2             0.0021    -0.0041     0.0020 C.ar    
   3 C3             1.1977    -0.6667    -0.0130 C.ar    
   4 C4             2.3931     0.0376    -0.0206 C.ar    
   5 C5             2.3961     1.4162    -0.0132 C.ar    
   6 C6             1.1917     2.1089     0.0020 C.ar    
   7 C7            -1.0868     2.3944     0.0312 C.2     
   8 C8            -0.4996     3.5990     0.0292 C.2     
   9 N9             0.8672     3.4531     0.0128 N.am    
  10 C10            1.7560     4.4662     0.0066 C.2     
  11 O11            1.3236     5.7407     0.0163 O.3     
  12 O12            2.9470     4.2291    -0.0077 O.2     
  13 C13            2.3369     6.7806     0.0088 C.3     
  14 C14            1.6599     8.1526     0.0216 C.3     
  15 H15           -0.9247    -0.5586     0.0082 H       
  16 H16            1.2118    -1.7466    -0.0185 H       
  17 H17            3.3302    -0.4993    -0.0321 H       
  18 H18            3.3315     1.9559    -0.0189 H       
  19 H19           -2.1488     2.1988     0.0455 H       
  20 H20           -1.0224     4.5440     0.0423 H       
  21 H21            2.9685     6.6789     0.8913 H       
  22 H22            2.9484     6.6856    -0.8885 H       
  23 H23            1.0283     8.2544    -0.8609 H       
  24 H24            1.0484     8.2476     0.9189 H       
  25 H25            2.4206     8.9333     0.0160 H       
@<TRIPOS>BOND
   1    1    2 ar
   2    1    6 ar
   3    1    7 1
   4    2    3 ar
   5    2   15 1
   6    3    4 ar
   7    3   16 1
   8    4    5 ar
   9    4   17 1
  10    5    6 ar
  11    5   18 1
  12    6    9 1
  13    7    8 2
  14    7   19 1
  15    8    9 1
  16    8   20 1
  17    9   10 am
  18   10   11 1
  19   10   12 2
  20   11   13 1
  21   13   14 1
  22   13   21 1
  23   13   22 1
  24   14   23 1
  25   14   24 1
  26   14   25 1

#	End of record

