#	Name: ASD01560049
#	Creating user name:	WinNT
#	Creation time:	15. 06. 2019 19:22

#	Modifying user name:	WinNT
#	Modification time:	15. 06. 2019 19:22

#	Program:	/corina/corina34_cracker 3.40 0067  02.08.2006

@<TRIPOS>MOLECULE
ASD01560049
  45   48    0    0    0
SMALL
NO_CHARGES


@<TRIPOS>ATOM
   1 C1            -0.0187     1.5258     0.0104 C.3     
   2 C2             0.0021    -0.0041     0.0020 C.3     
   3 O3            -1.3386    -0.4987     0.0122 O.3     
   4 C4            -1.4984    -1.8487     0.0064 C.ar    
   5 C5            -2.7743    -2.3949     0.0157 C.ar    
   6 C6            -2.9403    -3.7642     0.0099 C.ar    
   7 C7            -1.8241    -4.6001    -0.0052 C.ar    
   8 C8            -0.5436    -4.0478    -0.0145 C.ar    
   9 C9            -0.3853    -2.6776    -0.0144 C.ar    
  10 C10           -1.9983    -6.0718    -0.0110 C.2     
  11 C11           -2.8106    -6.8192     0.8598 C.2     
  12 N12           -2.7072    -8.0848     0.5492 N.2     
  13 N13           -1.8292    -8.2235    -0.5309 N.am    
  14 C14           -1.3930    -6.9718    -0.8833 C.2     
  15 N15           -0.5296    -6.8179    -1.9050 N.2     
  16 C16           -0.0978    -7.8662    -2.5730 C.2     
  17 S17            1.0324    -7.6502    -3.9074 S.3     
  18 C18            1.2151    -5.8498    -3.8762 C.3     
  19 C19            2.1659    -5.4225    -4.9645 C.2     
  20 N20            3.5130    -5.6215    -4.8188 N.am    
  21 C21            4.3700    -5.2436    -5.7846 C.2     
  22 O22            5.5621    -5.4295    -5.6343 O.2     
  23 N23            3.9265    -4.6631    -6.9151 N.am    
  24 C24            2.6078    -4.4493    -7.0975 C.2     
  25 O25            2.2061    -3.9237    -8.1200 O.2     
  26 C26            1.6934    -4.8464    -6.0909 C.2     
  27 Cl27          -0.0103    -4.5849    -6.2973 Cl      
  28 N28           -0.5230    -9.1280    -2.2353 N.am    
  29 C29           -1.3913    -9.2980    -1.2173 C.2     
  30 O30           -1.7699   -10.4131    -0.9155 O.2     
  31 H31            1.0039     1.9031     0.0027 H       
  32 H32           -0.5459     1.8868    -0.8726 H       
  33 H33           -0.5289     1.8773     0.9072 H       
  34 H34            0.5123    -0.3556    -0.8948 H       
  35 H35            0.5293    -0.3651     0.8851 H       
  36 H36           -3.6383    -1.7469     0.0278 H       
  37 H37           -3.9334    -4.1885     0.0175 H       
  38 H38            0.3231    -4.6922    -0.0259 H       
  39 H39            0.6061    -2.2491    -0.0219 H       
  40 H40           -3.4195    -6.4144     1.6546 H       
  41 H41            0.2436    -5.3831    -4.0387 H       
  42 H42            1.6090    -5.5412    -2.9079 H       
  43 H43            3.8524    -6.0386    -4.0115 H       
  44 H44            4.5583    -4.3971    -7.6013 H       
  45 H45           -0.2014    -9.8968    -2.7316 H       
@<TRIPOS>BOND
   1    1    2 1
   2    1   31 1
   3    1   32 1
   4    1   33 1
   5    2    3 1
   6    2   34 1
   7    2   35 1
   8    3    4 1
   9    4    5 ar
  10    4    9 ar
  11    5    6 ar
  12    5   36 1
  13    6    7 ar
  14    6   37 1
  15    7    8 ar
  16    7   10 1
  17    8    9 ar
  18    8   38 1
  19    9   39 1
  20   10   11 1
  21   10   14 2
  22   11   12 2
  23   11   40 1
  24   12   13 1
  25   13   14 1
  26   13   29 am
  27   14   15 1
  28   15   16 2
  29   16   17 1
  30   16   28 1
  31   17   18 1
  32   18   19 1
  33   18   41 1
  34   18   42 1
  35   19   20 1
  36   19   26 2
  37   20   21 am
  38   20   43 1
  39   21   22 2
  40   21   23 am
  41   23   24 am
  42   23   44 1
  43   24   25 2
  44   24   26 1
  45   26   27 1
  46   28   29 am
  47   28   45 1
  48   29   30 2

#	End of record

