#	Name: ASD01908212
#	Creating user name:	WinNT
#	Creation time:	15. 06. 2019 19:54

#	Modifying user name:	WinNT
#	Modification time:	15. 06. 2019 19:54

#	Program:	/corina/corina34_cracker 3.40 0067  02.08.2006

@<TRIPOS>MOLECULE
ASD01908212
  43   45    0    0    0
SMALL
NO_CHARGES


@<TRIPOS>ATOM
   1 O1            -0.0813     1.4334     0.0231 O.3     
   2 C2            -1.1955     1.6311     0.7576 C.2     
   3 C3            -1.0305     2.7819     1.4743 C.2     
   4 C4             0.2387     3.2832     1.1458 C.2     
   5 C5             0.7859     2.4275     0.2545 C.2     
   6 C6            -2.3767     0.7627     0.7822 C.2     
   7 O7            -3.3263     1.0469     1.4885 O.2     
   8 N8            -2.4108    -0.3501     0.0227 N.am    
   9 C9            -3.4941    -1.2290     0.1186 C.ar    
  10 C10           -4.7730    -0.7348     0.3359 C.ar    
  11 C11           -5.8440    -1.6090     0.4304 C.ar    
  12 C12           -5.6360    -2.9760     0.3077 C.ar    
  13 C13           -4.3623    -3.4662     0.0919 C.ar    
  14 C14           -3.2928    -2.5975    -0.0091 C.ar    
  15 O15           -7.0972    -1.1284     0.6435 O.3     
  16 C16           -8.1536    -2.0869     0.7302 C.3     
  17 C17           -9.4602    -1.3743     0.9668 C.2     
  18 O18           -9.4844    -0.1647     1.0528 O.2     
  19 C19          -10.7042    -2.1446     1.0933 C.ar    
  20 C20          -11.9197    -1.4849     1.3132 C.ar    
  21 C21          -13.0784    -2.2087     1.4307 C.ar    
  22 C22          -13.0478    -3.5956     1.3317 C.ar    
  23 C23          -11.8433    -4.2556     1.1133 C.ar    
  24 C24          -10.6798    -3.5408     0.9887 C.ar    
  25 O25          -14.1969    -4.3071     1.4490 O.3     
  26 C26          -14.0944    -5.7281     1.3374 C.3     
  27 H27           -1.7393     3.2212     2.1605 H       
  28 H28            0.6926     4.1837     1.5325 H       
  29 H29            1.7619     2.5284    -0.1968 H       
  30 H30           -1.6839    -0.5413    -0.5905 H       
  31 H31           -4.9329     0.3290     0.4315 H       
  32 H32           -6.4708    -3.6572     0.3814 H       
  33 H33           -4.2032    -4.5303    -0.0025 H       
  34 H34           -2.2990    -2.9829    -0.1830 H       
  35 H35           -8.2104    -2.6502    -0.2013 H       
  36 H36           -7.9574    -2.7701     1.5565 H       
  37 H37          -11.9445    -0.4079     1.3906 H       
  38 H38          -14.0163    -1.7009     1.6006 H       
  39 H39          -11.8248    -5.3328     1.0376 H       
  40 H40           -9.7456    -4.0540     0.8147 H       
  41 H41          -13.4342    -6.1071     2.1175 H       
  42 H42          -15.0828    -6.1736     1.4497 H       
  43 H43          -13.6879    -5.9873     0.3598 H       
@<TRIPOS>BOND
   1    1    2 1
   2    1    5 1
   3    2    3 2
   4    2    6 1
   5    3    4 1
   6    3   27 1
   7    4    5 2
   8    4   28 1
   9    5   29 1
  10    6    7 2
  11    6    8 am
  12    8    9 1
  13    8   30 1
  14    9   10 ar
  15    9   14 ar
  16   10   11 ar
  17   10   31 1
  18   11   12 ar
  19   11   15 1
  20   12   13 ar
  21   12   32 1
  22   13   14 ar
  23   13   33 1
  24   14   34 1
  25   15   16 1
  26   16   17 1
  27   16   35 1
  28   16   36 1
  29   17   18 2
  30   17   19 1
  31   19   20 ar
  32   19   24 ar
  33   20   21 ar
  34   20   37 1
  35   21   22 ar
  36   21   38 1
  37   22   23 ar
  38   22   25 1
  39   23   24 ar
  40   23   39 1
  41   24   40 1
  42   25   26 1
  43   26   41 1
  44   26   42 1
  45   26   43 1

#	End of record

