#	Name: ASD01913390
#	Creating user name:	WinNT
#	Creation time:	15. 06. 2019 20:01

#	Modifying user name:	WinNT
#	Modification time:	15. 06. 2019 20:01

#	Program:	/corina/corina34_cracker 3.40 0067  02.08.2006

@<TRIPOS>MOLECULE
ASD01913390
  34   36    0    0    0
SMALL
NO_CHARGES


@<TRIPOS>ATOM
   1 C1            -0.3597    -0.7339    -2.2463 C.ar    
   2 C2            -0.6984    -0.0501    -1.0830 C.ar    
   3 C3            -0.5581     1.3339    -1.0673 C.ar    
   4 N4            -0.1108     1.9461    -2.1512 N.ar    
   5 C5             0.1997     1.2628    -3.2345 C.ar    
   6 N6             0.0805    -0.0486    -3.2886 N.ar    
   7 C7            -1.1682    -2.0752    -0.0312 C.ar    
   8 C8            -0.0508    -2.7923     0.3739 C.ar    
   9 C9            -0.0605    -4.1757     0.3393 C.ar    
  10 C10           -1.1823    -4.8514    -0.0986 C.ar    
  11 C11           -2.3106    -4.1379    -0.5074 C.ar    
  12 C12           -2.2988    -2.7434    -0.4718 C.ar    
  13 C13           -3.5133    -4.8577    -0.9768 C.2     
  14 N14           -3.5220    -6.2050    -1.0107 N.am    
  15 C15           -4.6521    -6.8813    -1.4517 C.2     
  16 O16           -4.4945    -4.2344    -1.3323 O.2     
  17 O17           -1.1550    -0.7170     0.0097 O.3     
  18 S18           -6.0966    -6.1344    -1.9795 S.3     
  19 C19           -6.8142    -7.7141    -2.2852 C.2     
  20 C20           -5.9139    -8.6461    -1.9667 C.2     
  21 N21           -4.7633    -8.1707    -1.5284 N.2     
  22 C22           -6.1869   -10.1221    -2.1016 C.3     
  23 Cl23           1.3418    -5.0641     0.8474 Cl      
  24 H24           -0.4507    -1.8089    -2.2961 H       
  25 H25           -0.8109     1.9002    -0.1831 H       
  26 H26            0.5622     1.7927    -4.1029 H       
  27 H27            0.8294    -2.2687     0.7170 H       
  28 H28           -1.1867    -5.9311    -0.1252 H       
  29 H29           -3.1689    -2.1863    -0.7865 H       
  30 H30           -2.7390    -6.7023    -0.7270 H       
  31 H31           -7.8089    -7.8963    -2.6642 H       
  32 H32           -5.8908   -10.4569    -3.0957 H       
  33 H33           -5.6165   -10.6673    -1.3496 H       
  34 H34           -7.2509   -10.3094    -1.9570 H       
@<TRIPOS>BOND
   1    1    2 ar
   2    1    6 ar
   3    1   24 1
   4    2    3 ar
   5    2   17 1
   6    3    4 ar
   7    3   25 1
   8    4    5 ar
   9    5    6 ar
  10    5   26 1
  11    7    8 ar
  12    7   12 ar
  13    7   17 1
  14    8    9 ar
  15    8   27 1
  16    9   10 ar
  17    9   23 1
  18   10   11 ar
  19   10   28 1
  20   11   12 ar
  21   11   13 1
  22   12   29 1
  23   13   14 am
  24   13   16 2
  25   14   15 1
  26   14   30 1
  27   15   18 1
  28   15   21 2
  29   18   19 1
  30   19   20 2
  31   19   31 1
  32   20   21 1
  33   20   22 1
  34   22   32 1
  35   22   33 1
  36   22   34 1

#	End of record

