#	Name: ASD07300204
#	Creating user name:	WinNT
#	Creation time:	15. 06. 2019 21:09

#	Modifying user name:	WinNT
#	Modification time:	15. 06. 2019 21:09

#	Program:	/corina/corina34_cracker 3.40 0067  02.08.2006

@<TRIPOS>MOLECULE
ASD07300204
  45   49    0    0    0
SMALL
NO_CHARGES


@<TRIPOS>ATOM
   1 C1            -0.8589     0.9899    -0.1280 C.ar    
   2 C2            -1.0217    -0.3809    -0.3508 C.ar    
   3 C3             0.0638    -1.2292    -0.1914 C.ar    
   4 C4             1.2788    -0.6762     0.1866 C.ar    
   5 C5             1.3679     0.6880     0.3901 C.ar    
   6 N6             0.3192     1.4722     0.2317 N.ar    
   7 C7            -2.9728     0.6164    -0.6987 C.2     
   8 N8            -2.0975     1.5793    -0.3546 N.am    
   9 N9            -2.3516    -0.5785    -0.7099 N.am    
  10 O10           -4.1464     0.7984    -0.9633 O.2     
  11 C11           -2.3865     2.9474    -0.2431 C.ar    
  12 C12           -3.6708     3.4088    -0.4981 C.ar    
  13 C13           -3.9548     4.7556    -0.3882 C.ar    
  14 C14           -2.9568     5.6477    -0.0234 C.ar    
  15 C15           -1.6730     5.1871     0.2312 C.ar    
  16 C16           -1.3897     3.8397     0.1280 C.ar    
  17 O17           -3.2368     6.9738     0.0843 O.3     
  18 C18           -3.9127     7.3934     1.1784 C.2     
  19 N19           -4.2397     6.6378     2.1945 N.2     
  20 C20           -4.9105     7.3771     3.1164 C.ar    
  21 C21           -4.9942     8.6855     2.6138 C.ar    
  22 N22           -4.3490     8.6685     1.3880 N.pl3   
  23 C23           -5.4749     7.0801     4.3598 C.ar    
  24 C24           -6.1063     8.0699     5.0791 C.ar    
  25 C25           -6.1870     9.3611     4.5796 C.ar    
  26 C26           -5.6342     9.6719     3.3522 C.ar    
  27 F27           -5.7164    10.9319     2.8716 F       
  28 C28           -2.9711    -1.8654    -1.0359 C.3     
  29 C29           -3.5342    -2.4978     0.2385 C.3     
  30 H30           -0.0341    -2.2920    -0.3567 H       
  31 H31            2.1463    -1.3054     0.3208 H       
  32 H32            2.3132     1.1197     0.6843 H       
  33 H33           -4.4475     2.7146    -0.7828 H       
  34 H34           -4.9538     5.1147    -0.5866 H       
  35 H35           -0.8963     5.8820     0.5144 H       
  36 H36           -0.3916     3.4805     0.3311 H       
  37 H37           -4.2312     9.4226     0.7893 H       
  38 H38           -5.4164     6.0768     4.7553 H       
  39 H39           -6.5423     7.8388     6.0397 H       
  40 H40           -6.6853    10.1284     5.1536 H       
  41 H41           -3.7785    -1.7092    -1.7513 H       
  42 H42           -2.2235    -2.5287    -1.4709 H       
  43 H43           -4.2818    -1.8345     0.6735 H       
  44 H44           -3.9951    -3.4553    -0.0040 H       
  45 H45           -2.7268    -2.6540     0.9539 H       
@<TRIPOS>BOND
   1    1    2 ar
   2    1    6 ar
   3    1    8 1
   4    2    3 ar
   5    2    9 1
   6    3    4 ar
   7    3   30 1
   8    4    5 ar
   9    4   31 1
  10    5    6 ar
  11    5   32 1
  12    7    8 am
  13    7    9 am
  14    7   10 2
  15    8   11 1
  16    9   28 1
  17   11   12 ar
  18   11   16 ar
  19   12   13 ar
  20   12   33 1
  21   13   14 ar
  22   13   34 1
  23   14   15 ar
  24   14   17 1
  25   15   16 ar
  26   15   35 1
  27   16   36 1
  28   17   18 1
  29   18   19 2
  30   18   22 1
  31   19   20 1
  32   20   21 ar
  33   20   23 ar
  34   21   22 1
  35   21   26 ar
  36   22   37 1
  37   23   24 ar
  38   23   38 1
  39   24   25 ar
  40   24   39 1
  41   25   26 ar
  42   25   40 1
  43   26   27 1
  44   28   29 1
  45   28   41 1
  46   28   42 1
  47   29   43 1
  48   29   44 1
  49   29   45 1

#	End of record

