#	Name: ASD01908046
#	Creating user name:	WinNT
#	Creation time:	15. 06. 2019 19:54

#	Modifying user name:	WinNT
#	Modification time:	15. 06. 2019 19:54

#	Program:	/corina/corina34_cracker 3.40 0067  02.08.2006

@<TRIPOS>MOLECULE
ASD01908046
  29   31    0    0    0
SMALL
NO_CHARGES


@<TRIPOS>ATOM
   1 S1             0.1617     1.7165    -0.9632 S.3     
   2 N2             0.1873     0.0180    -1.0037 N.2     
   3 C3             1.3597    -0.3315    -0.5382 C.2     
   4 N4             2.1838     0.6332    -0.1747 N.2     
   5 C5             1.7501     1.8666    -0.3138 C.2     
   6 N6             2.4250     3.0345    -0.0052 N.pl3   
   7 N7             2.8884    -3.5827    -0.0137 N.pl3   
   8 N8             1.6414    -3.9531    -0.5314 N.2     
   9 C9             0.9553    -2.8688    -0.7779 C.2     
  10 C10            1.7477    -1.7596    -0.4230 C.2     
  11 C11            2.9369    -2.2368     0.0461 C.2     
  12 C12           -0.4403    -2.8143    -1.3439 C.3     
  13 C13            1.7693     4.2663    -0.0978 C.ar    
  14 C14            2.4340     5.3723    -0.6155 C.ar    
  15 C15            1.7828     6.5876    -0.7054 C.ar    
  16 C16            0.4717     6.7041    -0.2806 C.ar    
  17 C17           -0.1916     5.6061     0.2351 C.ar    
  18 C18            0.4512     4.3862     0.3217 C.ar    
  19 Cl19           4.0800     5.2266    -1.1478 Cl      
  20 H20            3.3528     2.9989     0.2754 H       
  21 H21            3.5940    -4.1898     0.2589 H       
  22 H22            3.7668    -1.6437     0.4009 H       
  23 H23           -1.1638    -2.8292    -0.5288 H       
  24 H24           -0.5626    -1.8981    -1.9215 H       
  25 H25           -0.6040    -3.6762    -1.9908 H       
  26 H26            2.2981     7.4474    -1.1073 H       
  27 H27           -0.0351     7.6552    -0.3515 H       
  28 H28           -1.2151     5.7010     0.5665 H       
  29 H29           -0.0694     3.5280     0.7202 H       
@<TRIPOS>BOND
   1    1    2 1
   2    1    5 1
   3    2    3 2
   4    3    4 1
   5    3   10 1
   6    4    5 2
   7    5    6 1
   8    6   13 1
   9    6   20 1
  10    7    8 1
  11    7   11 1
  12    7   21 1
  13    8    9 2
  14    9   10 1
  15    9   12 1
  16   10   11 2
  17   11   22 1
  18   12   23 1
  19   12   24 1
  20   12   25 1
  21   13   14 ar
  22   13   18 ar
  23   14   15 ar
  24   14   19 1
  25   15   16 ar
  26   15   26 1
  27   16   17 ar
  28   16   27 1
  29   17   18 ar
  30   17   28 1
  31   18   29 1

#	End of record

