#	Name: ASD08170123
#	Creating user name:	WinNT
#	Creation time:	15. 06. 2019 21:17

#	Modifying user name:	WinNT
#	Modification time:	15. 06. 2019 21:17

#	Program:	/corina/corina34_cracker 3.40 0067  02.08.2006

@<TRIPOS>MOLECULE
ASD08170123
  15   15    0    0    0
SMALL
NO_CHARGES


@<TRIPOS>ATOM
   1 N1            -0.0150     1.2568     0.0090 N.2     
   2 N2             1.3887    -1.9608    -0.0217 N.pl3   
   3 N3             0.0021    -0.0041     0.0020 N.2     
   4 C4             1.3107     3.3735     0.0081 C.3     
   5 C5             1.1641    -0.5922    -0.0122 C.2     
   6 C6             1.3891     3.8712     1.4528 C.3     
   7 C7             1.1187     1.8788     0.0015 C.2     
   8 S8             2.4013     0.6666    -0.0173 S.3     
   9 H9             0.6384    -2.5755    -0.0182 H       
  10 H10            2.2962    -2.3032    -0.0319 H       
  11 H11            0.4696     3.8501    -0.4952 H       
  12 H12            2.2349     3.6234    -0.5129 H       
  13 H13            1.5280     4.9523     1.4576 H       
  14 H14            0.4649     3.6213     1.9738 H       
  15 H15            2.2303     3.3946     1.9561 H       
@<TRIPOS>BOND
   1    1    3 1
   2    1    7 2
   3    2    5 1
   4    2    9 1
   5    2   10 1
   6    3    5 2
   7    4    6 1
   8    4    7 1
   9    4   11 1
  10    4   12 1
  11    5    8 1
  12    6   13 1
  13    6   14 1
  14    6   15 1
  15    7    8 1

#	End of record

