#	Name: ASD01816019
#	Creating user name:	WinNT
#	Creation time:	15. 06. 2019 19:34

#	Modifying user name:	WinNT
#	Modification time:	15. 06. 2019 19:34

#	Program:	/corina/corina34_cracker 3.40 0067  02.08.2006

@<TRIPOS>MOLECULE
ASD01816019
  48   52    0    0    0
SMALL
NO_CHARGES


@<TRIPOS>ATOM
   1 C1            -0.0167     1.3812     0.0096 C.ar    
   2 C2             0.0021    -0.0041     0.0020 C.ar    
   3 C3             1.1985    -0.6908    -0.0131 C.ar    
   4 C4             2.4014     0.0060    -0.0209 C.ar    
   5 C5             2.3791     1.4105    -0.0132 C.ar    
   6 C6             1.1663     2.0916     0.0022 C.ar    
   7 N7             3.6067    -0.6779    -0.0356 N.pl3   
   8 C8             4.8002    -0.0565    -0.0437 C.2     
   9 C9             4.9007     1.3120    -0.0374 C.2     
  10 C10            3.6669     2.1305    -0.0217 C.2     
  11 C11            5.9971     2.2764    -0.0434 C.2     
  12 N12            5.4229     3.4987    -0.0322 N.am    
  13 N13            4.0309     3.3807    -0.0194 N.2     
  14 C14            6.1232     4.7118    -0.0332 C.ar    
  15 O15            7.1917     2.0280    -0.0555 O.2     
  16 C16            3.5816    -2.0722    -0.0419 C.2     
  17 C17            6.5503     5.2678    -1.2316 C.ar    
  18 C18            7.2407     6.4641    -1.2295 C.ar    
  19 C19            7.5073     7.1093    -0.0357 C.ar    
  20 C20            7.0845     6.5597     1.1605 C.ar    
  21 C21            6.3873     5.3652     1.1657 C.ar    
  22 F22            5.9741     4.8280     2.3344 F       
  23 C23            3.5718    -2.9043     1.0696 C.2     
  24 C24            3.5552    -2.9037    -1.1739 C.2     
  25 C25            3.5365    -4.1869    -0.7481 C.2     
  26 N26            3.5462    -4.2061     0.6080 N.pl3   
  27 C27            3.5862    -2.4944     2.4254 C.2     
  28 O28            3.6095    -1.3097     2.7026 O.2     
  29 O29            3.5740    -3.4177     3.4097 O.3     
  30 C30            3.5727    -4.1171     5.7230 C.3     
  31 C31            3.5897    -2.9332     4.7539 C.3     
  32 H32           -0.9602     1.9068     0.0170 H       
  33 H33           -0.9288    -0.5516     0.0083 H       
  34 H34            1.2006    -1.7708    -0.0186 H       
  35 H35            1.1507     3.1714     0.0077 H       
  36 H36            5.7023    -0.6501    -0.0551 H       
  37 H37            6.3433     4.7650    -2.1648 H       
  38 H38            7.5732     6.8963    -2.1618 H       
  39 H39            8.0473     8.0446    -0.0378 H       
  40 H40            7.2949     7.0658     2.0911 H       
  41 H41            3.5507    -2.5758    -2.2030 H       
  42 H42            3.5143    -5.0579    -1.3862 H       
  43 H43            3.5374    -5.0022     1.1621 H       
  44 H44            2.6708    -4.7071     5.5600 H       
  45 H45            4.4504    -4.7400     5.5511 H       
  46 H46            3.5847    -3.7475     6.7484 H       
  47 H47            4.4916    -2.3432     4.9170 H       
  48 H48            2.7120    -2.3103     4.9259 H       
@<TRIPOS>BOND
   1    1    2 ar
   2    1    6 ar
   3    1   32 1
   4    2    3 ar
   5    2   33 1
   6    3    4 ar
   7    3   34 1
   8    4    5 ar
   9    4    7 1
  10    5    6 ar
  11    5   10 1
  12    6   35 1
  13    7    8 1
  14    7   16 1
  15    8    9 2
  16    8   36 1
  17    9   10 1
  18    9   11 1
  19   10   13 2
  20   11   12 am
  21   11   15 2
  22   12   13 1
  23   12   14 1
  24   14   17 ar
  25   14   21 ar
  26   16   24 1
  27   16   23 2
  28   17   18 ar
  29   17   37 1
  30   18   19 ar
  31   18   38 1
  32   19   20 ar
  33   19   39 1
  34   20   21 ar
  35   20   40 1
  36   21   22 1
  37   23   27 1
  38   23   26 1
  39   24   25 2
  40   24   41 1
  41   25   26 1
  42   25   42 1
  43   26   43 1
  44   27   28 2
  45   27   29 1
  46   29   31 1
  47   30   31 1
  48   30   44 1
  49   30   45 1
  50   30   46 1
  51   31   47 1
  52   31   48 1

#	End of record

