#	Name: ASD01200228
#	Creating user name:	WinNT
#	Creation time:	15. 06. 2019 19:08

#	Modifying user name:	WinNT
#	Modification time:	15. 06. 2019 19:08

#	Program:	/corina/corina34_cracker 3.40 0067  02.08.2006

@<TRIPOS>MOLECULE
ASD01200228
  41   43    0    0    0
SMALL
NO_CHARGES


@<TRIPOS>ATOM
   1 C1             0.5685     1.0298    -0.0313 C.ar    
   2 C2             0.3639    -0.3379    -0.0085 C.ar    
   3 C3            -0.9223    -0.8446    -0.0133 C.ar    
   4 C4            -2.0045     0.0150    -0.0407 C.ar    
   5 C5            -1.8018     1.3823    -0.0635 C.ar    
   6 C6            -0.5158     1.8910    -0.0531 C.ar    
   7 C7            -1.1448    -2.3348     0.0111 C.3     
   8 C8            -1.9467    -2.7105     1.2587 C.3     
   9 C9            -1.9083    -2.7490    -1.2204 C.2     
  10 N10           -2.0912    -4.0563    -1.4921 N.am    
  11 O11           -2.3582    -1.9057    -1.9671 O.2     
  12 C12           -1.1114    -2.4227     2.5078 C.3     
  13 C13           -2.7112    -4.4402    -2.6754 C.2     
  14 C14           -1.9522    -2.6695     3.7726 C.3     
  15 C15           -1.2366    -3.7813     4.5674 C.3     
  16 C16            0.2342    -3.7045     4.0881 C.3     
  17 C17            0.0858    -3.3931     2.5781 C.3     
  18 Cl18           2.1835     1.6666    -0.0254 Cl      
  19 Cl19          -0.2607     3.6079    -0.0816 Cl      
  20 S20           -3.0067    -6.0570    -3.1464 S.3     
  21 C21           -3.7554    -5.4963    -4.6393 C.2     
  22 C22           -3.7151    -4.1625    -4.6468 C.2     
  23 N23           -3.1545    -3.6244    -3.5799 N.2     
  24 H24            1.2090    -1.0100     0.0126 H       
  25 H25           -3.0089    -0.3819    -0.0447 H       
  26 H26           -2.6478     2.0533    -0.0853 H       
  27 H27           -0.1820    -2.8456     0.0305 H       
  28 H28           -2.8640    -2.1226     1.2916 H       
  29 H29           -2.1959    -3.7711     1.2247 H       
  30 H30           -1.7902    -4.7294    -0.8617 H       
  31 H31           -0.7569    -1.3921     2.4902 H       
  32 H32           -2.0051    -1.7589     4.3694 H       
  33 H33           -2.9554    -2.9944     3.4966 H       
  34 H34           -1.2997    -3.5860     5.6379 H       
  35 H35           -1.6647    -4.7554     4.3306 H       
  36 H36            0.7651    -2.9005     4.5979 H       
  37 H37            0.7397    -4.6585     4.2379 H       
  38 H38           -0.1287    -4.3045     2.0199 H       
  39 H39            0.9878    -2.9145     2.1968 H       
  40 H40           -4.1738    -6.1226    -5.4133 H       
  41 H41           -4.1126    -3.5711    -5.4584 H       
@<TRIPOS>BOND
   1    1    2 ar
   2    1   18 1
   3    1    6 ar
   4    2    3 ar
   5    2   24 1
   6    3    4 ar
   7    3    7 1
   8    4    5 ar
   9    4   25 1
  10    5    6 ar
  11    5   26 1
  12    6   19 1
  13    7    8 1
  14    7    9 1
  15    7   27 1
  16    8   12 1
  17    8   28 1
  18    8   29 1
  19    9   10 am
  20    9   11 2
  21   10   13 1
  22   10   30 1
  23   12   14 1
  24   12   17 1
  25   12   31 1
  26   13   20 1
  27   13   23 2
  28   14   15 1
  29   14   32 1
  30   14   33 1
  31   15   16 1
  32   15   34 1
  33   15   35 1
  34   16   17 1
  35   16   36 1
  36   16   37 1
  37   17   38 1
  38   17   39 1
  39   20   21 1
  40   21   22 2
  41   21   40 1
  42   22   23 1
  43   22   41 1

#	End of record

