#	Name: ASD02038875
#	Creating user name:	WinNT
#	Creation time:	15. 06. 2019 20:17

#	Modifying user name:	WinNT
#	Modification time:	15. 06. 2019 20:17

#	Program:	/corina/corina34_cracker 3.40 0067  02.08.2006

@<TRIPOS>MOLECULE
ASD02038875
  73   75    0    0    0
SMALL
NO_CHARGES


@<TRIPOS>ATOM
   1 C1             0.2190     2.5406     1.8705 C.3     
   2 C2            -0.0184     1.0430     1.5837 C.3     
   3 N3             1.0146     0.6120     0.6304 N.am    
   4 C4             1.8611     1.7713     0.2945 C.3     
   5 C5             1.7135     2.7327     1.5001 C.3     
   6 C6             3.2976     1.3438     0.1375 C.2     
   7 N7             4.2120     2.2141    -0.3346 N.am    
   8 O8             3.6309     0.2165     0.4359 O.2     
   9 C9             5.6573     1.9658    -0.4394 C.3     
  10 C10            6.2954     3.2275    -1.0578 C.3     
  11 C11            5.1023     3.8972    -1.7896 C.3     
  12 C12            3.9277     3.5705    -0.8374 C.3     
  13 C13            6.2441     1.7141     0.9510 C.3     
  14 C14            7.7429     1.5933     0.8494 C.ar    
  15 C15            8.5256     2.7311     0.7904 C.ar    
  16 C16            9.9003     2.6203     0.6971 C.ar    
  17 C17           10.4924     1.3716     0.6633 C.ar    
  18 C18            9.7097     0.2337     0.7232 C.ar    
  19 C19            8.3352     0.3446     0.8209 C.ar    
  20 C20            5.9097     0.7755    -1.3285 C.2     
  21 N21            5.2196     0.6342    -2.4775 N.am    
  22 O22            6.7339    -0.0553    -1.0101 O.2     
  23 C23            5.3960    -0.5687    -3.2948 C.3     
  24 C24            6.5869    -0.3902    -4.2008 C.2     
  25 C25            4.1419    -0.7993    -4.1403 C.3     
  26 C26            2.9150    -0.8562    -3.2279 C.3     
  27 O27            3.9925     0.2729    -5.0731 O.3     
  28 N28            6.9424    -1.3758    -5.0486 N.am    
  29 O29            7.2254     0.6404    -4.1672 O.2     
  30 C30            1.1634    -0.6363     0.1446 C.2     
  31 C31            0.3067    -1.7577     0.6733 C.3     
  32 O32            1.9868    -0.8572    -0.7180 O.2     
  33 N33            0.2970    -2.8640    -0.2932 N.3     
  34 C34            0.8755    -2.2495     2.0057 C.3     
  35 C35            0.0811    -3.4677     2.4809 C.3     
  36 O36            2.2468    -2.6128     1.8332 O.3     
  37 H37           -0.4176     3.1600     1.2387 H       
  38 H38            0.0513     2.7628     2.9244 H       
  39 H39            0.0675     0.4705     2.5073 H       
  40 H40           -1.0074     0.9013     1.1478 H       
  41 H41            1.5049     2.2495    -0.6179 H       
  42 H42            1.9136     3.7628     1.2052 H       
  43 H43            2.3618     2.4305     2.3226 H       
  44 H44            6.6872     3.8825    -0.2796 H       
  45 H45            7.0787     2.9562    -1.7655 H       
  46 H46            5.2507     4.9737    -1.8748 H       
  47 H47            4.9430     3.4476    -2.7697 H       
  48 H48            2.9830     3.5871    -1.3808 H       
  49 H49            3.9025     4.2788    -0.0093 H       
  50 H50            5.9904     2.5457     1.6085 H       
  51 H51            5.8319     0.7906     1.3577 H       
  52 H52            8.0630     3.7067     0.8168 H       
  53 H53           10.5118     3.5093     0.6503 H       
  54 H54           11.5664     1.2850     0.5897 H       
  55 H55           10.1722    -0.7418     0.6965 H       
  56 H56            7.7237    -0.5444     0.8677 H       
  57 H57            4.6060     1.3291    -2.7633 H       
  58 H58            5.5594    -1.4286    -2.6452 H       
  59 H59            4.2364    -1.7409    -4.6812 H       
  60 H60            2.8205     0.0854    -2.6870 H       
  61 H61            2.0216    -1.0204    -3.8303 H       
  62 H62            3.0289    -1.6740    -2.5164 H       
  63 H63            3.2160     0.1925    -5.6438 H       
  64 H64            6.4318    -2.2001    -5.0755 H       
  65 H65            7.7090    -1.2609    -5.6318 H       
  66 H66           -0.7111    -1.3976     0.8235 H       
  67 H67           -0.1336    -2.5822    -1.1611 H       
  68 H68            1.2297    -3.2156    -0.4497 H       
  69 H69            0.8008    -1.4549     2.7481 H       
  70 H70            0.4864    -3.8181     3.4301 H       
  71 H71           -0.9648    -3.1907     2.6125 H       
  72 H72            0.1559    -4.2623     1.7385 H       
  73 H73            2.6729    -2.9345     2.6394 H       
@<TRIPOS>BOND
   1    1    2 1
   2    1    5 1
   3    1   37 1
   4    1   38 1
   5    2    3 1
   6    2   39 1
   7    2   40 1
   8    3    4 1
   9    3   30 am
  10    4    5 1
  11    4    6 1
  12    4   41 1
  13    5   42 1
  14    5   43 1
  15    6    7 am
  16    6    8 2
  17    7    9 1
  18    7   12 1
  19    9   10 1
  20    9   13 1
  21    9   20 1
  22   10   11 1
  23   10   44 1
  24   10   45 1
  25   11   12 1
  26   11   46 1
  27   11   47 1
  28   12   48 1
  29   12   49 1
  30   13   14 1
  31   13   50 1
  32   13   51 1
  33   14   15 ar
  34   14   19 ar
  35   15   16 ar
  36   15   52 1
  37   16   17 ar
  38   16   53 1
  39   17   18 ar
  40   17   54 1
  41   18   19 ar
  42   18   55 1
  43   19   56 1
  44   20   21 am
  45   20   22 2
  46   21   23 1
  47   21   57 1
  48   23   24 1
  49   23   25 1
  50   23   58 1
  51   24   28 am
  52   24   29 2
  53   25   26 1
  54   25   27 1
  55   25   59 1
  56   26   60 1
  57   26   61 1
  58   26   62 1
  59   27   63 1
  60   28   64 1
  61   28   65 1
  62   30   32 2
  63   30   31 1
  64   31   33 1
  65   31   34 1
  66   31   66 1
  67   33   67 1
  68   33   68 1
  69   34   35 1
  70   34   36 1
  71   34   69 1
  72   35   70 1
  73   35   71 1
  74   35   72 1
  75   36   73 1

#	End of record

