#	Name: ASD01200538
#	Creating user name:	WinNT
#	Creation time:	15. 06. 2019 19:09

#	Modifying user name:	WinNT
#	Modification time:	15. 06. 2019 19:09

#	Program:	/corina/corina34_cracker 3.40 0067  02.08.2006

@<TRIPOS>MOLECULE
ASD01200538
  43   45    0    0    0
SMALL
NO_CHARGES


@<TRIPOS>ATOM
   1 N1             2.2307     1.3387     0.5646 N.ar    
   2 C2             2.2417     0.0209     0.5646 C.ar    
   3 C3             1.2057    -0.6961    -0.0206 C.ar    
   4 C4             0.1516    -0.0017    -0.6089 C.ar    
   5 C5             0.1813     1.3832    -0.5852 C.ar    
   6 C6             1.2474     2.0256     0.0161 C.ar    
   7 N7             1.2214    -2.0945    -0.0195 N.am    
   8 C8             0.0669    -2.7813     0.0900 C.2     
   9 O9            -0.9777    -2.1883     0.2860 O.2     
  10 O10            1.1516    -5.0191    -0.2424 O.3     
  11 C11            0.0694    -4.2428    -0.0269 C.2     
  12 C12           -1.0233    -5.0570     0.0637 C.2     
  13 C13           -0.5621    -6.3717    -0.1064 C.2     
  14 C14            0.7748    -6.3035    -0.2909 C.2     
  15 C15            1.6909    -7.4789    -0.5150 C.3     
  16 O16            1.7915    -7.7442    -1.9155 O.3     
  17 C17            2.5860    -8.7817    -2.2918 C.ar    
  18 C18            2.7285    -9.0941    -3.6356 C.ar    
  19 C19            3.5356   -10.1480    -4.0178 C.ar    
  20 C20            4.2038   -10.8934    -3.0578 C.ar    
  21 C21            4.0620   -10.5804    -1.7141 C.ar    
  22 C22            3.2584    -9.5238    -1.3322 C.ar    
  23 O23            4.9976   -11.9314    -3.4340 O.3     
  24 C24            5.6555   -12.6557    -2.3926 C.3     
  25 C25            6.4969   -13.7775    -3.0045 C.3     
  26 H26            3.0644    -0.5069     1.0238 H       
  27 H27           -0.6686    -0.5297    -1.0724 H       
  28 H28           -0.6190     1.9544    -1.0320 H       
  29 H29            1.2753     3.1050     0.0376 H       
  30 H30            2.0631    -2.5702    -0.0975 H       
  31 H31           -2.0445    -4.7489     0.2332 H       
  32 H32           -1.1627    -7.2692    -0.0918 H       
  33 H33            2.6794    -7.2502    -0.1166 H       
  34 H34            1.2883    -8.3553    -0.0071 H       
  35 H35            2.2082    -8.5137    -4.3831 H       
  36 H36            3.6460   -10.3917    -5.0641 H       
  37 H37            4.5820   -11.1610    -0.9666 H       
  38 H38            3.1509    -9.2777    -0.2861 H       
  39 H39            6.3024   -11.9801    -1.8329 H       
  40 H40            4.9109   -13.0845    -1.7219 H       
  41 H41            6.9988   -14.3299    -2.2100 H       
  42 H42            5.8500   -14.4530    -3.5641 H       
  43 H43            7.2415   -13.3487    -3.6751 H       
@<TRIPOS>BOND
   1    1    2 ar
   2    1    6 ar
   3    2    3 ar
   4    2   26 1
   5    3    4 ar
   6    3    7 1
   7    4    5 ar
   8    4   27 1
   9    5    6 ar
  10    5   28 1
  11    6   29 1
  12    7    8 am
  13    7   30 1
  14    8    9 2
  15    8   11 1
  16   10   11 1
  17   10   14 1
  18   11   12 2
  19   12   13 1
  20   12   31 1
  21   13   14 2
  22   13   32 1
  23   14   15 1
  24   15   16 1
  25   15   33 1
  26   15   34 1
  27   16   17 1
  28   17   18 ar
  29   17   22 ar
  30   18   19 ar
  31   18   35 1
  32   19   20 ar
  33   19   36 1
  34   20   21 ar
  35   20   23 1
  36   21   22 ar
  37   21   37 1
  38   22   38 1
  39   23   24 1
  40   24   25 1
  41   24   39 1
  42   24   40 1
  43   25   41 1
  44   25   42 1
  45   25   43 1

#	End of record

