#	Name: ASD04881075
#	Creating user name:	WinNT
#	Creation time:	15. 06. 2019 20:53

#	Modifying user name:	WinNT
#	Modification time:	15. 06. 2019 20:53

#	Program:	/corina/corina34_cracker 3.40 0067  02.08.2006

@<TRIPOS>MOLECULE
ASD04881075
  83   88    0    0    0
SMALL
NO_CHARGES


@<TRIPOS>ATOM
   1 C1             0.4806     1.0602    -0.4868 C.2     
   2 C2             1.6920     1.6325    -0.7265 C.2     
   3 C3             2.0783     3.0231    -0.4269 C.2     
   4 O4             1.2759     3.7803     0.0851 O.2     
   5 N5             2.4794     0.6793    -1.2947 N.2     
   6 C6             1.7895    -0.4169    -1.3980 C.2     
   7 O7             0.5582    -0.2118    -0.9095 O.3     
   8 N8             3.3207     3.4555    -0.7202 N.am    
   9 C9             3.6546     4.8039    -0.5371 C.ar    
  10 C10            4.9529     5.1579    -0.1581 C.ar    
  11 C11            5.2856     6.4950     0.0234 C.ar    
  12 C12            4.3379     7.4761    -0.1688 C.ar    
  13 C13            3.0384     7.1292    -0.5476 C.ar    
  14 C14            2.7026     5.7852    -0.7364 C.ar    
  15 C15            2.0235     8.1800    -0.7529 C.2     
  16 O16            0.8929     7.8772    -1.0825 O.2     
  17 N17            2.3494     9.4756    -0.5752 N.am    
  18 N18            5.9138     4.1694     0.0381 N.3     
  19 C19            5.5785     3.3319     1.1982 C.3     
  20 C20            6.6133     2.2122     1.3318 C.3     
  21 N21            7.9517     2.8008     1.4801 N.3     
  22 C22            8.2870     3.6383     0.3200 C.3     
  23 C23            7.2521     4.7580     0.1864 C.3     
  24 C24            8.9156     1.8093     1.6769 C.ar    
  25 C25            8.9090     1.0536     2.8428 C.ar    
  26 C26            9.8631     0.0739     3.0340 C.ar    
  27 C27           10.8247    -0.1553     2.0667 C.ar    
  28 C28           10.8341     0.5949     0.9053 C.ar    
  29 C29            9.8792     1.5727     0.7051 C.ar    
  30 C30            1.3416    10.5191    -0.7791 C.3     
  31 C31            1.9665    11.8904    -0.5145 C.3     
  32 N32           -0.1461    12.8377     0.2737 N.am    
  33 C33            0.9139    12.9802    -0.7274 C.3     
  34 C34           -1.5591    12.6003    -0.0443 C.3     
  35 C35           -2.3362    12.9531     1.2433 C.3     
  36 C36           -1.2619    12.7266     2.3321 C.3     
  37 C37            0.0514    12.9017     1.6018 C.2     
  38 O38            1.1257    13.0770     2.1367 O.2     
  39 C39            7.8622     1.3033     3.8977 C.3     
  40 C40            2.2939    -1.7140    -1.9762 C.3     
  41 C41            2.2951    -2.9415    -1.0628 C.3     
  42 C42            1.2740    -2.8329    -2.1970 C.3     
  43 C43            1.5682    14.3559    -0.5851 C.3     
  44 H44           -0.3781     1.5372    -0.0378 H       
  45 H45            3.9836     2.8332    -1.0581 H       
  46 H46            6.2894     6.7655     0.3162 H       
  47 H47            4.5993     8.5142    -0.0263 H       
  48 H48            1.7002     5.5144    -1.0335 H       
  49 H49            3.2513     9.7172    -0.3122 H       
  50 H50            5.5844     3.9422     2.1012 H       
  51 H51            4.5885     2.8974     1.0591 H       
  52 H52            6.3831     1.6069     2.2086 H       
  53 H53            6.5884     1.5856     0.4403 H       
  54 H54            9.2769     4.0728     0.4591 H       
  55 H55            8.2810     3.0279    -0.5830 H       
  56 H56            7.4824     5.3632    -0.6904 H       
  57 H57            7.2771     5.3846     1.0779 H       
  58 H58            9.8586    -0.5139     3.9400 H       
  59 H59           11.5702    -0.9217     2.2191 H       
  60 H60           11.5864     0.4134     0.1520 H       
  61 H61            9.8844     2.1553    -0.2042 H       
  62 H62            0.9781    10.4775    -1.8058 H       
  63 H63            0.5100    10.3602    -0.0925 H       
  64 H64            2.3299    11.9320     0.5123 H       
  65 H65            2.7980    12.0493    -1.2010 H       
  66 H66            0.4866    12.8826    -1.7254 H       
  67 H67           -1.8747    13.2455    -0.8642 H       
  68 H68           -1.7163    11.5537    -0.3050 H       
  69 H69           -2.6638    13.9927     1.2287 H       
  70 H70           -3.1826    12.2810     1.3846 H       
  71 H71           -1.3616    13.4666     3.1262 H       
  72 H72           -1.3368    11.7177     2.7378 H       
  73 H73            7.0243     0.6227     3.7464 H       
  74 H74            8.2934     1.1349     4.8845 H       
  75 H75            7.5117     2.3328     3.8252 H       
  76 H76            3.1056    -1.6229    -2.6979 H       
  77 H77            3.1075    -3.6580    -1.1838 H       
  78 H78            1.9312    -2.8108    -0.0437 H       
  79 H79            0.2382    -2.6309    -1.9241 H       
  80 H80            1.4146    -3.4781    -3.0642 H       
  81 H81            2.3568    14.4620    -1.3300 H       
  82 H82            0.8183    15.1323    -0.7368 H       
  83 H83            1.9955    14.4535     0.4129 H       
@<TRIPOS>BOND
   1    1    7 1
   2    1    2 2
   3    1   44 1
   4    2    3 1
   5    2    5 1
   6    3    4 2
   7    3    8 am
   8    5    6 2
   9    6    7 1
  10    6   40 1
  11    8    9 1
  12    8   45 1
  13    9   10 ar
  14    9   14 ar
  15   10   11 ar
  16   10   18 1
  17   11   12 ar
  18   11   46 1
  19   12   13 ar
  20   12   47 1
  21   13   14 ar
  22   13   15 1
  23   14   48 1
  24   15   16 2
  25   15   17 am
  26   17   30 1
  27   17   49 1
  28   18   19 1
  29   18   23 1
  30   19   20 1
  31   19   50 1
  32   19   51 1
  33   20   21 1
  34   20   52 1
  35   20   53 1
  36   21   22 1
  37   21   24 1
  38   22   23 1
  39   22   54 1
  40   22   55 1
  41   23   56 1
  42   23   57 1
  43   24   25 ar
  44   24   29 ar
  45   25   26 ar
  46   25   39 1
  47   26   27 ar
  48   26   58 1
  49   27   28 ar
  50   27   59 1
  51   28   29 ar
  52   28   60 1
  53   29   61 1
  54   30   31 1
  55   30   62 1
  56   30   63 1
  57   31   33 1
  58   31   64 1
  59   31   65 1
  60   32   33 1
  61   32   34 1
  62   32   37 am
  63   33   43 1
  64   33   66 1
  65   34   35 1
  66   34   67 1
  67   34   68 1
  68   35   36 1
  69   35   69 1
  70   35   70 1
  71   36   37 1
  72   36   71 1
  73   36   72 1
  74   37   38 2
  75   39   73 1
  76   39   74 1
  77   39   75 1
  78   40   41 1
  79   40   42 1
  80   40   76 1
  81   41   42 1
  82   41   77 1
  83   41   78 1
  84   42   79 1
  85   42   80 1
  86   43   81 1
  87   43   82 1
  88   43   83 1

#	End of record

