#	Name: ASD03910094
#	Creating user name:	WinNT
#	Creation time:	15. 06. 2019 20:47

#	Modifying user name:	WinNT
#	Modification time:	15. 06. 2019 20:47

#	Program:	/corina/corina34_cracker 3.40 0067  02.08.2006

@<TRIPOS>MOLECULE
ASD03910094
  42   43    0    0    0
SMALL
NO_CHARGES


@<TRIPOS>ATOM
   1 C1            -0.3041    -0.3680    -2.0009 C.3     
   2 C2            -2.5149     0.6486     3.0472 C.ar    
   3 C3            -1.8872     0.1231     4.1614 C.ar    
   4 C4            -0.7616    -0.6666     4.0155 C.ar    
   5 C5            -0.2620    -0.9332     2.7555 C.ar    
   6 C6            -0.8899    -0.4070     1.6360 C.ar    
   7 C7            -2.0189     0.3854     1.7850 C.ar    
   8 O8            -0.3998    -0.6670     0.3954 O.3     
   9 C9            -1.0180     0.0092    -0.7013 C.3     
  10 C10           -0.9227     1.5212    -0.4873 C.3     
  11 C11           -2.4304     0.4118     5.5371 C.3     
  12 C12           -3.4336    -0.6478     5.9136 C.2     
  13 N13           -4.0538    -0.5943     7.1090 N.am    
  14 C14           -5.4654    -3.9658     7.5187 C.ar    
  15 C15           -4.6246    -2.9408     7.1272 C.ar    
  16 C16           -4.9035    -1.6336     7.5035 C.ar    
  17 C17           -6.0269    -1.3596     8.2724 C.ar    
  18 C18           -6.8645    -2.3883     8.6612 C.ar    
  19 C19           -6.5873    -3.6894     8.2801 C.ar    
  20 O20           -3.6830    -1.5488     5.1409 O.2     
  21 Cl21          -8.2688    -2.0467     9.6230 Cl      
  22 Cl22          -5.1174    -5.6003     7.0486 Cl      
  23 C23           -2.4670    -0.3954    -0.7885 C.2     
  24 O24           -2.9235    -1.1821     0.0069 O.2     
  25 O25           -3.2506     0.1181    -1.7497 O.3     
  26 H26           -0.2980    -1.4524    -2.1106 H       
  27 H27           -0.8270     0.0798    -2.8459 H       
  28 H28            0.7216    -0.0000    -1.9720 H       
  29 H29           -3.3963     1.2618     3.1634 H       
  30 H30           -0.2727    -1.0754     4.8874 H       
  31 H31            0.6175    -1.5497     2.6421 H       
  32 H32           -2.5098     0.7959     0.9150 H       
  33 H33            0.1179     1.8349    -0.5698 H       
  34 H34           -1.5176     2.0334    -1.2435 H       
  35 H35           -1.3004     1.7724     0.5038 H       
  36 H36           -1.6130     0.4108     6.2581 H       
  37 H37           -2.9152     1.3881     5.5388 H       
  38 H38           -3.9111     0.1647     7.6959 H       
  39 H39           -3.7513    -3.1565     6.5295 H       
  40 H40           -6.2458    -0.3438     8.5667 H       
  41 H41           -7.2430    -4.4917     8.5849 H       
  42 H42           -4.1731    -0.1714    -1.7655 H       
@<TRIPOS>BOND
   1    1    9 1
   2    1   26 1
   3    1   27 1
   4    1   28 1
   5    2    3 ar
   6    2    7 ar
   7    2   29 1
   8    3    4 ar
   9    3   11 1
  10    4    5 ar
  11    4   30 1
  12    5    6 ar
  13    5   31 1
  14    6    7 ar
  15    6    8 1
  16    7   32 1
  17    8    9 1
  18    9   10 1
  19    9   23 1
  20   10   33 1
  21   10   34 1
  22   10   35 1
  23   11   12 1
  24   11   36 1
  25   11   37 1
  26   12   13 am
  27   12   20 2
  28   13   16 1
  29   13   38 1
  30   14   15 ar
  31   14   22 1
  32   14   19 ar
  33   15   16 ar
  34   15   39 1
  35   16   17 ar
  36   17   18 ar
  37   17   40 1
  38   18   19 ar
  39   18   21 1
  40   19   41 1
  41   23   24 2
  42   23   25 1
  43   25   42 1

#	End of record

