#	Name: ASD03330591
#	Creating user name:	WinNT
#	Creation time:	15. 06. 2019 20:37

#	Modifying user name:	WinNT
#	Modification time:	15. 06. 2019 20:37

#	Program:	/corina/corina34_cracker 3.40 0067  02.08.2006

@<TRIPOS>MOLECULE
ASD03330591
  68   70    0    0    0
SMALL
NO_CHARGES


@<TRIPOS>ATOM
   1 C1            -0.3249     1.1707     0.8417 C.2     
   2 N2            -0.3555    -0.1688     1.0751 N.pl3   
   3 C3             0.9802     1.5558     0.8899 C.2     
   4 N4             1.7263     0.4554     1.1325 N.2     
   5 C5             0.9334    -0.5854     1.2393 C.2     
   6 C6             1.3647    -1.9763     1.4949 C.ar    
   7 C7             1.4883     2.9270     0.7091 C.2     
   8 O8             0.7133     3.8393     0.4941 O.2     
   9 C9             3.3171     4.5337     0.6024 C.3     
  10 N10            2.8119     3.1703     0.7821 N.am    
  11 C11            3.4958     4.8187    -0.8902 C.3     
  12 C12            2.1298     4.8045    -1.5792 C.3     
  13 C13            4.1450     6.1920    -1.0730 C.3     
  14 C14            4.3913     3.7446    -1.5109 C.3     
  15 C15            4.6439     4.6742     1.3030 C.2     
  16 N16            5.1812     5.8960     1.4900 N.am    
  17 O17            5.2282     3.6878     1.6986 O.2     
  18 C18            6.5038     6.0281     2.1061 C.3     
  19 C19           -1.5662    -0.9913     1.1471 C.3     
  20 C20           -2.4706    -0.6593    -0.0439 C.3     
  21 C21           -3.3818     0.5113     0.3110 C.3     
  22 N22           -2.7060     1.4528     1.2058 N.3     
  23 C23           -1.5216     2.0432     0.5646 C.3     
  24 C24           -3.6306     2.4971     1.6667 C.3     
  25 C25            0.9228    -4.1539     2.4056 C.ar    
  26 C26            2.1736    -4.5829     1.9748 C.ar    
  27 C27            3.0214    -3.7047     1.3082 C.ar    
  28 C28            2.6219    -2.4082     1.0683 C.ar    
  29 C29            0.5180    -2.8585     2.1684 C.ar    
  30 C30            1.6910    -6.8192     2.9232 C.3     
  31 N31            2.5807    -5.8946     2.2163 N.pl3   
  32 C32            3.8980    -6.3479     1.7631 C.3     
  33 H33            2.6060     5.2433     1.0252 H       
  34 H34            3.4301     2.4427     0.9537 H       
  35 H35            1.4919     5.5697    -1.1370 H       
  36 H36            2.2571     5.0076    -2.6425 H       
  37 H37            1.6673     3.8261    -1.4490 H       
  38 H38            5.1037     6.2126    -0.5547 H       
  39 H39            4.3019     6.3813    -2.1349 H       
  40 H40            3.4919     6.9606    -0.6595 H       
  41 H41            3.9288     2.7662    -1.3806 H       
  42 H42            4.5186     3.9476    -2.5742 H       
  43 H43            5.3645     3.7547    -1.0200 H       
  44 H44            4.6922     6.6879     1.2166 H       
  45 H45            7.2420     5.5062     1.4973 H       
  46 H46            6.7692     7.0832     2.1740 H       
  47 H47            6.4841     5.5934     3.1055 H       
  48 H48           -1.2927    -2.0459     1.1139 H       
  49 H49           -2.0953    -0.7802     2.0763 H       
  50 H50           -1.8552    -0.3921    -0.9030 H       
  51 H51           -3.0784    -1.5297    -0.2913 H       
  52 H52           -3.6696     1.0305    -0.6032 H       
  53 H53           -4.2774     0.1311     0.8023 H       
  54 H54           -1.3472     3.0403     0.9689 H       
  55 H55           -1.6840     2.1082    -0.5113 H       
  56 H56           -4.4593     2.0370     2.2049 H       
  57 H57           -3.1029     3.1828     2.3296 H       
  58 H58           -4.0157     3.0464     0.8076 H       
  59 H59            0.2666    -4.8380     2.9230 H       
  60 H60            3.9923    -4.0404     0.9751 H       
  61 H61            3.2805    -1.7267     0.5503 H       
  62 H62           -0.4533    -2.5258     2.5035 H       
  63 H63            1.0615    -7.3405     2.2021 H       
  64 H64            2.2869    -7.5449     3.4768 H       
  65 H65            1.0628    -6.2602     3.6167 H       
  66 H66            4.0376    -7.3930     2.0398 H       
  67 H67            3.9642    -6.2469     0.6798 H       
  68 H68            4.6724    -5.7412     2.2326 H       
@<TRIPOS>BOND
   1    1    2 1
   2    1    3 2
   3    1   23 1
   4    2   19 1
   5    2    5 1
   6    3    4 1
   7    3    7 1
   8    4    5 2
   9    5    6 1
  10    6   29 ar
  11    6   28 ar
  12    7    8 2
  13    7   10 am
  14    9   10 1
  15    9   11 1
  16    9   15 1
  17    9   33 1
  18   10   34 1
  19   11   12 1
  20   11   13 1
  21   11   14 1
  22   12   35 1
  23   12   36 1
  24   12   37 1
  25   13   38 1
  26   13   39 1
  27   13   40 1
  28   14   41 1
  29   14   42 1
  30   14   43 1
  31   15   16 am
  32   15   17 2
  33   16   18 1
  34   16   44 1
  35   18   45 1
  36   18   46 1
  37   18   47 1
  38   19   20 1
  39   19   48 1
  40   19   49 1
  41   20   21 1
  42   20   50 1
  43   20   51 1
  44   21   22 1
  45   21   52 1
  46   21   53 1
  47   22   23 1
  48   22   24 1
  49   23   54 1
  50   23   55 1
  51   24   56 1
  52   24   57 1
  53   24   58 1
  54   25   26 ar
  55   25   29 ar
  56   25   59 1
  57   26   27 ar
  58   26   31 1
  59   27   28 ar
  60   27   60 1
  61   28   61 1
  62   29   62 1
  63   30   31 1
  64   30   63 1
  65   30   64 1
  66   30   65 1
  67   31   32 1
  68   32   66 1
  69   32   67 1
  70   32   68 1

#	End of record

