#	Name: ASD02030675
#	Creating user name:	WinNT
#	Creation time:	15. 06. 2019 20:15

#	Modifying user name:	WinNT
#	Modification time:	15. 06. 2019 20:15

#	Program:	/corina/corina34_cracker 3.40 0067  02.08.2006

@<TRIPOS>MOLECULE
ASD02030675
  43   45    0    0    0
SMALL
NO_CHARGES


@<TRIPOS>ATOM
   1 N1            -0.0366     1.3654     0.0826 N.am    
   2 C2             0.1028     0.0249     0.0722 C.2     
   3 C3            -1.0884    -0.8417     0.1650 C.ar    
   4 O4             1.2099    -0.4705    -0.0136 O.2     
   5 C5            -0.9461    -2.2317     0.1543 C.ar    
   6 C6            -2.0601    -3.0367     0.2416 C.ar    
   7 C7            -3.3244    -2.4684     0.3401 C.ar    
   8 C8            -3.4704    -1.0865     0.3505 C.ar    
   9 C9            -2.3611    -0.2743     0.2695 C.ar    
  10 O10           -4.4202    -3.2656     0.4259 O.3     
  11 C11           -4.5395    -4.0241     1.5327 C.2     
  12 N12           -5.5473    -4.9131     1.6350 N.am    
  13 O13           -3.7386    -3.9067     2.4389 O.2     
  14 C14            1.0930     2.1843     0.0733 C.ar    
  15 C15            2.2781     1.7285    -0.4633 C.ar    
  16 C16            3.4103     2.5373    -0.4775 C.ar    
  17 C17            3.3802     3.7981     0.0360 C.ar    
  18 C18            2.1918     4.3011     0.5918 C.ar    
  19 C19            1.0310     3.4889     0.6077 C.ar    
  20 C20           -5.6771    -5.7380     2.8387 C.3     
  21 C21           -6.5130    -5.0546     0.5424 C.3     
  22 C22            2.1310     5.5989     1.1286 C.ar    
  23 C23            0.9633     6.0545     1.6589 C.ar    
  24 C24           -0.1765     5.2530     1.6784 C.ar    
  25 C25           -0.1555     3.9929     1.1630 C.ar    
  26 H26           -0.9222     1.7609     0.0926 H       
  27 H27            0.0361    -2.6741     0.0775 H       
  28 H28           -1.9510    -4.1111     0.2331 H       
  29 H29           -4.4548    -0.6487     0.4268 H       
  30 H30           -2.4753     0.7996     0.2776 H       
  31 H31            2.3285     0.7321    -0.8771 H       
  32 H32            4.3282     2.1587    -0.9025 H       
  33 H33            4.2703     4.4096     0.0197 H       
  34 H34           -5.8049    -5.0937     3.7086 H       
  35 H35           -6.5440    -6.3912     2.7398 H       
  36 H36           -4.7788    -6.3427     2.9634 H       
  37 H37           -6.1601    -5.8108    -0.1588 H       
  38 H38           -7.4784    -5.3574     0.9478 H       
  39 H39           -6.6190    -4.1009     0.0254 H       
  40 H40            3.0066     6.2311     1.1206 H       
  41 H41            0.9194     7.0518     2.0710 H       
  42 H42           -1.0908     5.6383     2.1050 H       
  43 H43           -1.0465     3.3829     1.1845 H       
@<TRIPOS>BOND
   1    1    2 am
   2    1   14 1
   3    1   26 1
   4    2    3 1
   5    2    4 2
   6    3    5 ar
   7    3    9 ar
   8    5    6 ar
   9    5   27 1
  10    6    7 ar
  11    6   28 1
  12    7    8 ar
  13    7   10 1
  14    8    9 ar
  15    8   29 1
  16    9   30 1
  17   10   11 1
  18   11   12 am
  19   11   13 2
  20   12   20 1
  21   12   21 1
  22   14   15 ar
  23   14   19 ar
  24   15   16 ar
  25   15   31 1
  26   16   17 ar
  27   16   32 1
  28   17   18 ar
  29   17   33 1
  30   18   19 ar
  31   18   22 ar
  32   19   25 ar
  33   20   34 1
  34   20   35 1
  35   20   36 1
  36   21   37 1
  37   21   38 1
  38   21   39 1
  39   22   23 ar
  40   22   40 1
  41   23   24 ar
  42   23   41 1
  43   24   25 ar
  44   24   42 1
  45   25   43 1

#	End of record

