#	Name: ASD01411152
#	Creating user name:	WinNT
#	Creation time:	15. 06. 2019 19:19

#	Modifying user name:	WinNT
#	Modification time:	15. 06. 2019 19:19

#	Program:	/corina/corina34_cracker 3.40 0067  02.08.2006

@<TRIPOS>MOLECULE
ASD01411152
  44   46    0    0    0
SMALL
NO_CHARGES


@<TRIPOS>ATOM
   1 C1            -0.0146     1.3831     0.0956 C.ar    
   2 C2             0.4556     0.6693     1.1757 C.ar    
   3 C3             1.6578    -0.0381     1.0768 C.ar    
   4 C4             2.3783    -0.0161    -0.1257 C.ar    
   5 C5             1.8882     0.7107    -1.2089 C.ar    
   6 C6             0.6968     1.4055    -1.0933 C.ar    
   7 C7             2.1648    -0.8023     2.2304 C.2     
   8 O8             2.5807     0.7380    -2.3789 O.3     
   9 C9             2.0194     1.5032    -3.4473 C.3     
  10 C10            2.9185     1.4165    -4.6536 C.ar    
  11 C11            3.9332     2.3392    -4.8267 C.ar    
  12 C12            2.7318     0.4110    -5.5837 C.ar    
  13 C13            3.5561     0.3310    -6.6902 C.ar    
  14 C14            4.5682     1.2575    -6.8670 C.ar    
  15 C15            4.7582     2.2603    -5.9329 C.ar    
  16 Cl16           5.6039     1.1577    -8.2566 Cl      
  17 O17            1.4861    -0.7946     3.3946 O.3     
  18 O18            3.1949    -1.4393     2.1319 O.2     
  19 N19            3.5776    -0.7164    -0.2369 N.am    
  20 C20            4.7517    -0.0618    -0.1399 C.2     
  21 O21            4.7659     1.1502    -0.0427 O.2     
  22 C22            6.0195    -0.8155    -0.1517 C.ar    
  23 C23            7.2432    -0.1387    -0.0512 C.ar    
  24 C24            8.4288    -0.8575    -0.0634 C.ar    
  25 C25            8.4030    -2.2338    -0.1746 C.ar    
  26 C26            7.1962    -2.9062    -0.2742 C.ar    
  27 C27            6.0078    -2.2083    -0.2575 C.ar    
  28 O28            7.2671     1.2133     0.0572 O.3     
  29 H29           -0.9456     1.9249     0.1744 H       
  30 H30           -0.1041     0.6563     2.0992 H       
  31 H31            0.3194     1.9679    -1.9345 H       
  32 H32            1.0350     1.1084    -3.6988 H       
  33 H33            1.9253     2.5442    -3.1383 H       
  34 H34            4.0812     3.1222    -4.0977 H       
  35 H35            1.9419    -0.3125    -5.4455 H       
  36 H36            3.4104    -0.4549    -7.4166 H       
  37 H37            5.5507     2.9814    -6.0682 H       
  38 H38            1.8578    -1.3108     4.1229 H       
  39 H39            3.5676    -1.6751    -0.3840 H       
  40 H40            9.3738    -0.3403     0.0139 H       
  41 H41            9.3293    -2.7890    -0.1844 H       
  42 H42            7.1863    -3.9827    -0.3612 H       
  43 H43            5.0690    -2.7372    -0.3305 H       
  44 H44            7.2403     1.5354     0.9686 H       
@<TRIPOS>BOND
   1    1    2 ar
   2    1    6 ar
   3    1   29 1
   4    2    3 ar
   5    2   30 1
   6    3    4 ar
   7    3    7 1
   8    4    5 ar
   9    4   19 1
  10    5    6 ar
  11    5    8 1
  12    6   31 1
  13    7   17 1
  14    7   18 2
  15    8    9 1
  16    9   10 1
  17    9   32 1
  18    9   33 1
  19   10   12 ar
  20   10   11 ar
  21   11   15 ar
  22   11   34 1
  23   12   13 ar
  24   12   35 1
  25   13   14 ar
  26   13   36 1
  27   14   15 ar
  28   14   16 1
  29   15   37 1
  30   17   38 1
  31   19   20 am
  32   19   39 1
  33   20   21 2
  34   20   22 1
  35   22   23 ar
  36   22   27 ar
  37   23   24 ar
  38   23   28 1
  39   24   25 ar
  40   24   40 1
  41   25   26 ar
  42   25   41 1
  43   26   27 ar
  44   26   42 1
  45   27   43 1
  46   28   44 1

#	End of record

