#	Name: ASD01911791
#	Creating user name:	WinNT
#	Creation time:	15. 06. 2019 19:58

#	Modifying user name:	WinNT
#	Modification time:	15. 06. 2019 19:58

#	Program:	/corina/corina34_cracker 3.40 0067  02.08.2006

@<TRIPOS>MOLECULE
ASD01911791
  46   49    0    0    0
SMALL
NO_CHARGES


@<TRIPOS>ATOM
   1 C1            -0.3472     1.5371     0.0120 C.2     
   2 N2            -0.2699     0.1891     0.3410 N.pl3   
   3 C3             0.7167     2.3893     0.4023 C.2     
   4 C4             1.7613     1.8515     1.0787 C.2     
   5 N5             1.7857     0.5428     1.3709 N.2     
   6 C6             0.8268    -0.2650     1.0271 C.2     
   7 C7            -1.3834    -0.4375    -0.1240 C.2     
   8 C8            -2.1825     0.5091    -0.7556 C.2     
   9 C9            -1.5086     1.7536    -0.6649 C.2     
  10 N10           -1.6717    -1.7858     0.0081 N.pl3   
  11 C11           -0.9248    -2.7330    -0.6992 C.ar    
  12 C12           -1.2554    -4.0824    -0.6202 C.ar    
  13 C13            0.1449    -2.3289    -1.4865 C.ar    
  14 C14            0.8811    -3.2673    -2.1841 C.ar    
  15 C15            0.5540    -4.6079    -2.1000 C.ar    
  16 C16           -0.5142    -5.0152    -1.3211 C.ar    
  17 F17           -2.2986    -4.4801     0.1405 F       
  18 C18            1.3594    -5.6274    -2.8635 C.3     
  19 C19           -3.4785     0.2647    -1.4011 C.2     
  20 N20           -4.1469     1.2832    -1.9776 N.am    
  21 O21           -3.9490    -0.8574    -1.4156 O.2     
  22 O22           -5.3967     1.0475    -2.6002 O.3     
  23 C23           -5.9920     2.2153    -3.1691 C.3     
  24 C24           -7.3306     1.8444    -3.8107 C.3     
  25 O25           -8.2407     1.4115    -2.7976 O.3     
  26 C26            2.0652    -6.7187    -2.0563 C.3     
  27 C27            0.8331    -7.0636    -2.8952 C.3     
  28 H28            0.6955     3.4429     0.1658 H       
  29 H29            2.5821     2.4831     1.3849 H       
  30 H30            0.8948    -1.3110     1.2872 H       
  31 H31           -1.8555     2.6992    -1.0547 H       
  32 H32           -2.3916    -2.0730     0.5912 H       
  33 H33            0.4013    -1.2820    -1.5538 H       
  34 H34            1.7133    -2.9529    -2.7966 H       
  35 H35           -0.7667    -6.0634    -1.2573 H       
  36 H36            1.8634    -5.2559    -3.7558 H       
  37 H37           -3.7718     2.1777    -1.9661 H       
  38 H38           -6.1569     2.9568    -2.3873 H       
  39 H39           -5.3277     2.6289    -3.9279 H       
  40 H40           -7.7425     2.7150    -4.3211 H       
  41 H41           -7.1782     1.0398    -4.5301 H       
  42 H42           -9.1120     1.1598    -3.1330 H       
  43 H43            3.0333    -7.0655    -2.4176 H       
  44 H44            1.9470    -6.6993    -0.9729 H       
  45 H45           -0.0957    -7.2711    -2.3638 H       
  46 H46            0.9906    -7.6373    -3.8086 H       
@<TRIPOS>BOND
   1    1    2 1
   2    1    3 1
   3    1    9 2
   4    2    7 1
   5    2    6 1
   6    3    4 2
   7    3   28 1
   8    4    5 1
   9    4   29 1
  10    5    6 2
  11    6   30 1
  12    7    8 2
  13    7   10 1
  14    8    9 1
  15    8   19 1
  16    9   31 1
  17   10   11 1
  18   10   32 1
  19   11   12 ar
  20   11   13 ar
  21   12   17 1
  22   12   16 ar
  23   13   14 ar
  24   13   33 1
  25   14   15 ar
  26   14   34 1
  27   15   16 ar
  28   15   18 1
  29   16   35 1
  30   18   26 1
  31   18   27 1
  32   18   36 1
  33   19   20 am
  34   19   21 2
  35   20   22 1
  36   20   37 1
  37   22   23 1
  38   23   24 1
  39   23   38 1
  40   23   39 1
  41   24   25 1
  42   24   40 1
  43   24   41 1
  44   25   42 1
  45   26   27 1
  46   26   43 1
  47   26   44 1
  48   27   45 1
  49   27   46 1

#	End of record

