#	Name: ASD01420361
#	Creating user name:	WinNT
#	Creation time:	15. 06. 2019 19:20

#	Modifying user name:	WinNT
#	Modification time:	15. 06. 2019 19:20

#	Program:	/corina/corina34_cracker 3.40 0067  02.08.2006

@<TRIPOS>MOLECULE
ASD01420361
  50   52    0    0    0
SMALL
NO_CHARGES


@<TRIPOS>ATOM
   1 C1            -0.0178     1.4620     0.0101 C.3     
   2 N2             0.0021    -0.0041     0.0020 N.am    
   3 C3             1.4107    -0.4109    -0.0136 C.3     
   4 C4             2.2499     0.8419    -0.0149 C.ar    
   5 C5             3.6218     1.0181    -0.0271 C.ar    
   6 C6             4.1581     2.2985    -0.0253 C.ar    
   7 C7             3.3130     3.4011    -0.0113 C.ar    
   8 C8             1.9451     3.2190     0.0008 C.ar    
   9 C9             1.4124     1.9403    -0.0010 C.ar    
  10 C10           -1.0695    -0.8214     0.0079 C.2     
  11 O11           -0.9144    -2.0266     0.0004 O.2     
  12 O12           -2.3118    -0.3026     0.0220 O.3     
  13 N13            5.5432     2.4778    -0.0371 N.3     
  14 C14            5.8895     3.9059    -0.0328 C.3     
  15 C15            7.4109     4.0590     0.0343 C.3     
  16 N16            8.0206     3.3757    -1.1150 N.3     
  17 C17            7.6743     1.9475    -1.1193 C.3     
  18 C18            6.1529     1.7944    -1.1864 C.3     
  19 C19            9.4774     3.5642    -1.1274 C.3     
  20 C20           -3.4186    -1.2425     0.0276 C.3     
  21 C21           -3.3290    -2.1286     1.2716 C.3     
  22 C22           -4.7410    -0.4730     0.0437 C.3     
  23 C23           -3.3522    -2.1161    -1.2268 C.3     
  24 H24           -0.5370     1.8293    -0.8751 H       
  25 H25           -0.5200     1.8197     0.9089 H       
  26 H26            1.6338    -1.0041     0.8732 H       
  27 H27            1.6167    -0.9945    -0.9109 H       
  28 H28            4.2761     0.1590    -0.0376 H       
  29 H29            3.7258     4.3991    -0.0095 H       
  30 H30            1.2880     4.0760     0.0120 H       
  31 H31            5.5169     4.3732    -0.9444 H       
  32 H32            5.4370     4.3873     0.8341 H       
  33 H33            7.6714     5.1171     0.0084 H       
  34 H34            7.7805     3.6158     0.9589 H       
  35 H35            8.1268     1.4662    -1.9863 H       
  36 H36            8.0469     1.4802    -0.2078 H       
  37 H37            5.8924     0.7363    -1.1605 H       
  38 H38            5.7833     2.2377    -2.1111 H       
  39 H39            9.9044     3.1560    -0.2114 H       
  40 H40            9.9032     3.0483    -1.9881 H       
  41 H41            9.7055     4.6281    -1.1921 H       
  42 H42           -3.3763    -1.5062     2.1652 H       
  43 H43           -4.1599    -2.8341     1.2757 H       
  44 H44           -2.3870    -2.6768     1.2601 H       
  45 H45           -4.8048     0.1583    -0.8426 H       
  46 H46           -5.5719    -1.1785     0.0479 H       
  47 H47           -4.7883     0.1494     0.9373 H       
  48 H48           -2.4102    -2.6642    -1.2383 H       
  49 H49           -4.1831    -2.8216    -1.2226 H       
  50 H50           -3.4161    -1.4847    -2.1130 H       
@<TRIPOS>BOND
   1    1    2 1
   2    1    9 1
   3    1   24 1
   4    1   25 1
   5    2    3 1
   6    2   10 am
   7    3    4 1
   8    3   26 1
   9    3   27 1
  10    4    5 ar
  11    4    9 ar
  12    5    6 ar
  13    5   28 1
  14    6    7 ar
  15    6   13 1
  16    7    8 ar
  17    7   29 1
  18    8    9 ar
  19    8   30 1
  20   10   11 2
  21   10   12 1
  22   12   20 1
  23   13   14 1
  24   13   18 1
  25   14   15 1
  26   14   31 1
  27   14   32 1
  28   15   16 1
  29   15   33 1
  30   15   34 1
  31   16   17 1
  32   16   19 1
  33   17   18 1
  34   17   35 1
  35   17   36 1
  36   18   37 1
  37   18   38 1
  38   19   39 1
  39   19   40 1
  40   19   41 1
  41   20   21 1
  42   20   23 1
  43   20   22 1
  44   21   42 1
  45   21   43 1
  46   21   44 1
  47   22   45 1
  48   22   46 1
  49   22   47 1
  50   23   48 1
  51   23   49 1
  52   23   50 1

#	End of record

