#	Name: ASD01420036
#	Creating user name:	WinNT
#	Creation time:	15. 06. 2019 19:20

#	Modifying user name:	WinNT
#	Modification time:	15. 06. 2019 19:20

#	Program:	/corina/corina34_cracker 3.40 0067  02.08.2006

@<TRIPOS>MOLECULE
ASD01420036
  39   42    0    0    0
SMALL
NO_CHARGES


@<TRIPOS>ATOM
   1 C1            -0.0144     1.2120     0.0087 C.2     
   2 O2             0.2999     0.3317    -0.7694 O.2     
   3 C3             2.1586     1.0142     1.2577 C.3     
   4 N4             0.8504     1.6077     0.9637 N.am    
   5 C5             0.6634     2.7146     1.9072 C.3     
   6 C6             1.8886     2.7819     2.7835 C.ar    
   7 C7             2.2199     3.6328     3.8241 C.ar    
   8 C8             3.4260     3.4864     4.4816 C.ar    
   9 C9             4.3035     2.4884     4.1004 C.ar    
  10 C10            3.9733     1.6387     3.0624 C.ar    
  11 C11            2.7650     1.7852     2.4028 C.ar    
  12 C12           -1.3380     1.8499    -0.0964 C.ar    
  13 C13           -2.4903     1.0620    -0.2405 C.ar    
  14 C14           -3.7301     1.6695    -0.3381 C.ar    
  15 C15           -3.8310     3.0524    -0.2939 C.ar    
  16 C16           -2.6894     3.8349    -0.1511 C.ar    
  17 C17           -1.4519     3.2425    -0.0472 C.ar    
  18 O18           -5.0484     3.6445    -0.3908 O.3     
  19 O19           -2.3894    -0.2901    -0.2845 O.3     
  20 C20           -2.8094     5.3363    -0.1041 C.3     
  21 C21           -2.3073     6.0461     1.1549 C.3     
  22 C22           -1.5146     6.1503    -0.1496 C.3     
  23 H23            2.0348    -0.0312     1.5407 H       
  24 H24            2.8027     1.0868     0.3813 H       
  25 H25            0.5483     3.6505     1.3605 H       
  26 H26           -0.2195     2.5326     2.5199 H       
  27 H27            1.5345     4.4125     4.1220 H       
  28 H28            3.6834     4.1514     5.2927 H       
  29 H29            5.2468     2.3734     4.6136 H       
  30 H30            4.6591     0.8594     2.7646 H       
  31 H31           -4.6193     1.0667    -0.4491 H       
  32 H32           -0.5686     3.8532     0.0680 H       
  33 H33           -5.4878     3.7817     0.4595 H       
  34 H34           -2.4461    -0.7170     0.5813 H       
  35 H35           -3.6844     5.7539    -0.6021 H       
  36 H36           -2.8519     6.9308     1.4850 H       
  37 H37           -1.8903     5.4270     1.9492 H       
  38 H38           -0.5760     5.5997    -0.2135 H       
  39 H39           -1.5377     7.1035    -0.6777 H       
@<TRIPOS>BOND
   1    1    2 2
   2    1    4 am
   3    1   12 1
   4    3    4 1
   5    3   11 1
   6    3   23 1
   7    3   24 1
   8    4    5 1
   9    5    6 1
  10    5   25 1
  11    5   26 1
  12    6    7 ar
  13    6   11 ar
  14    7    8 ar
  15    7   27 1
  16    8    9 ar
  17    8   28 1
  18    9   10 ar
  19    9   29 1
  20   10   11 ar
  21   10   30 1
  22   12   13 ar
  23   12   17 ar
  24   13   14 ar
  25   13   19 1
  26   14   15 ar
  27   14   31 1
  28   15   16 ar
  29   15   18 1
  30   16   17 ar
  31   16   20 1
  32   17   32 1
  33   18   33 1
  34   19   34 1
  35   20   21 1
  36   20   22 1
  37   20   35 1
  38   21   22 1
  39   21   36 1
  40   21   37 1
  41   22   38 1
  42   22   39 1

#	End of record

