#	Name: ASD03731136
#	Creating user name:	WinNT
#	Creation time:	15. 06. 2019 20:45

#	Modifying user name:	WinNT
#	Modification time:	15. 06. 2019 20:45

#	Program:	/corina/corina34_cracker 3.40 0067  02.08.2006

@<TRIPOS>MOLECULE
ASD03731136
  43   48    0    0    0
SMALL
NO_CHARGES


@<TRIPOS>ATOM
   1 C1            -0.0165     1.3621     0.0095 C.2     
   2 C2             0.0021    -0.0041     0.0020 C.2     
   3 C3             1.2734    -0.5305    -0.0129 C.2     
   4 C4             2.2606     0.3714    -0.0175 C.2     
   5 S5             1.6372     1.9595    -0.0031 S.3     
   6 C6            -1.1940     2.1769     0.0198 C.1     
   7 N7            -2.1282     2.8232     0.0279 N.1     
   8 C8             3.7285     0.0305    -0.0334 C.3     
   9 O9             1.4158     2.7839    -6.2592 O.3     
  10 C10            1.5292     3.0107    -7.6765 C.3     
  11 O11            2.9400     3.2156    -7.8785 O.3     
  12 C12            3.5571     2.5297    -6.8717 C.ar    
  13 C13            2.6196     2.2655    -5.8759 C.ar    
  14 C14            4.8640     2.1017    -6.7225 C.ar    
  15 C15            5.2526     1.4079    -5.5804 C.ar    
  16 C16            4.3091     1.1572    -4.5888 C.ar    
  17 C17            3.0038     1.5773    -4.7374 C.ar    
  18 O18            6.4693     0.8894    -5.2471 O.3     
  19 C19            5.0288     0.4268    -3.4868 C.3     
  20 C20            6.5091     0.6455    -3.8278 C.3     
  21 N21            4.1909    -0.0725    -1.4196 N.am    
  22 C22            4.6820     0.9638    -2.1281 C.2     
  23 C23            4.6745    -1.0300    -3.4410 C.ar    
  24 C24            4.7544    -2.0577    -4.3540 C.ar    
  25 C25            4.3380    -3.3298    -4.0038 C.ar    
  26 C26            3.8409    -3.5663    -2.7350 C.ar    
  27 C27            3.7580    -2.5400    -1.8173 C.ar    
  28 C28            4.1752    -1.2564    -2.1610 C.ar    
  29 O29            4.8174     2.1061    -1.7434 O.2     
  30 H30           -0.8917    -0.6103     0.0076 H       
  31 H31            1.4602    -1.5942    -0.0201 H       
  32 H32            4.2886     0.8125     0.4793 H       
  33 H33            3.8859    -0.9213     0.4739 H       
  34 H34            1.1854     2.1386    -8.2326 H       
  35 H35            0.9677     3.8981    -7.9685 H       
  36 H36            5.5876     2.3072    -7.4974 H       
  37 H37            2.2796     1.3693    -3.9636 H       
  38 H38            7.0938    -0.2470    -3.6046 H       
  39 H39            6.9048     1.5115    -3.2971 H       
  40 H40            5.1427    -1.8707    -5.3443 H       
  41 H41            4.4014    -4.1362    -4.7193 H       
  42 H42            3.5158    -4.5593    -2.4616 H       
  43 H43            3.3681    -2.7324    -0.8286 H       
@<TRIPOS>BOND
   1    1    2 2
   2    1    5 1
   3    1    6 1
   4    2    3 1
   5    2   30 1
   6    3    4 2
   7    3   31 1
   8    4    5 1
   9    4    8 1
  10    6    7 3
  11    8   21 1
  12    8   32 1
  13    8   33 1
  14    9   10 1
  15    9   13 1
  16   10   11 1
  17   10   34 1
  18   10   35 1
  19   11   12 1
  20   12   13 ar
  21   12   14 ar
  22   13   17 ar
  23   14   15 ar
  24   14   36 1
  25   15   16 ar
  26   15   18 1
  27   16   17 ar
  28   16   19 1
  29   17   37 1
  30   18   20 1
  31   19   20 1
  32   19   22 1
  33   19   23 1
  34   20   38 1
  35   20   39 1
  36   21   22 am
  37   21   28 1
  38   22   29 2
  39   23   24 ar
  40   23   28 ar
  41   24   25 ar
  42   24   40 1
  43   25   26 ar
  44   25   41 1
  45   26   27 ar
  46   26   42 1
  47   27   28 ar
  48   27   43 1

#	End of record

