#	Name: ASD03240423
#	Creating user name:	WinNT
#	Creation time:	15. 06. 2019 20:34

#	Modifying user name:	WinNT
#	Modification time:	15. 06. 2019 20:34

#	Program:	/corina/corina34_cracker 3.40 0067  02.08.2006

@<TRIPOS>MOLECULE
ASD03240423
  41   43    0    0    0
SMALL
NO_CHARGES


@<TRIPOS>ATOM
   1 C1            -0.0167     1.3782     0.0096 C.ar    
   2 C2             0.0021    -0.0041     0.0020 C.ar    
   3 C3             2.5404     1.4820     2.0564 C.ar    
   4 C4             1.7234     2.3984     1.4194 C.ar    
   5 C5             1.2782     2.1491     0.0014 C.3     
   6 C6             2.9511     1.7055     3.3551 C.ar    
   7 C7             2.5412     2.8565     4.0242 C.ar    
   8 C8             1.7180     3.7759     3.3781 C.ar    
   9 C9             1.3132     3.5427     2.0793 C.ar    
  10 C10            2.9795     3.1019     5.4214 C.2     
  11 C11           -1.1852    -0.7116     0.0096 C.ar    
  12 C12           -2.3926    -0.0363     0.0247 C.ar    
  13 C13           -2.4107     1.3471     0.0323 C.ar    
  14 C14           -1.2228     2.0536     0.0190 C.ar    
  15 C15            2.6547     4.1810     6.1905 C.2     
  16 N16            3.2515     4.0222     7.3890 N.pl3   
  17 N17            3.9643     2.8173     7.3666 N.2     
  18 C18            3.8012     2.2601     6.1960 C.2     
  19 Cl19          -3.8842    -0.9243     0.0336 Cl      
  20 O20            2.2778     1.3938    -0.6859 O.3     
  21 C21            1.0706     3.4872    -0.7107 C.3     
  22 N22            0.5228     3.2480    -2.0526 N.3     
  23 C23            0.3099     4.5135    -2.7676 C.3     
  24 H24            0.9446    -0.5312    -0.0102 H       
  25 H25            2.8539     0.5877     1.5382 H       
  26 H26            3.5887     0.9891     3.8517 H       
  27 H27            1.3975     4.6699     3.8924 H       
  28 H28            0.6753     4.2551     1.5774 H       
  29 H29           -1.1704    -1.7915     0.0033 H       
  30 H30           -3.3529     1.8749     0.0441 H       
  31 H31           -1.2368     3.1335     0.0249 H       
  32 H32            2.0322     5.0119     5.8931 H       
  33 H33            3.1968     4.6368     8.1374 H       
  34 H34            4.2280     1.3211     5.8757 H       
  35 H35            2.4616     0.5315    -0.2887 H       
  36 H36            0.3741     4.0995    -0.1378 H       
  37 H37            2.0256     4.0058    -0.7953 H       
  38 H38            1.1193     2.6297    -2.5817 H       
  39 H39           -0.0961     4.3074    -3.7580 H       
  40 H40           -0.3918     5.1328    -2.2090 H       
  41 H41            1.2596     5.0392    -2.8664 H       
@<TRIPOS>BOND
   1    1    2 ar
   2    1    5 1
   3    1   14 ar
   4    2   11 ar
   5    2   24 1
   6    3    4 ar
   7    3    6 ar
   8    3   25 1
   9    4    5 1
  10    4    9 ar
  11    5   21 1
  12    5   20 1
  13    6    7 ar
  14    6   26 1
  15    7    8 ar
  16    7   10 1
  17    8    9 ar
  18    8   27 1
  19    9   28 1
  20   10   15 2
  21   10   18 1
  22   11   12 ar
  23   11   29 1
  24   12   13 ar
  25   12   19 1
  26   13   14 ar
  27   13   30 1
  28   14   31 1
  29   15   16 1
  30   15   32 1
  31   16   17 1
  32   16   33 1
  33   17   18 2
  34   18   34 1
  35   20   35 1
  36   21   22 1
  37   21   36 1
  38   21   37 1
  39   22   23 1
  40   22   38 1
  41   23   39 1
  42   23   40 1
  43   23   41 1

#	End of record

