#	Name: ASD05790132
#	Creating user name:	WinNT
#	Creation time:	15. 06. 2019 21:03

#	Modifying user name:	WinNT
#	Modification time:	15. 06. 2019 21:03

#	Program:	/corina/corina34_cracker 3.40 0067  02.08.2006

@<TRIPOS>MOLECULE
ASD05790132
  42   45    0    0    0
SMALL
NO_CHARGES


@<TRIPOS>ATOM
   1 C1            -0.0067     1.3665    -0.2056 C.ar    
   2 C2             0.0067    -0.0116     0.0208 C.ar    
   3 C3             1.2202    -0.6695     0.2332 C.ar    
   4 C4             2.3996     0.0423     0.2189 C.ar    
   5 C5             2.3827     1.4145    -0.0063 C.ar    
   6 C6             1.1762     2.0724    -0.2187 C.ar    
   7 N7             3.5799     2.1330    -0.0197 N.am    
   8 C8            -1.2600    -0.7717     0.0359 C.2     
   9 O9            -2.4856    -0.2532    -0.1548 O.3     
  10 N10           -1.3723    -2.0635     0.2320 N.2     
  11 C11           -2.6791    -2.3949     0.1752 C.2     
  12 C12           -3.3788    -1.2581    -0.0678 C.2     
  13 C13           -3.2472    -3.7555     0.3439 C.ar    
  14 C14           -2.4059    -4.8393     0.5873 C.ar    
  15 C15           -2.9396    -6.1024     0.7434 C.ar    
  16 C16           -4.3069    -6.2936     0.6586 C.ar    
  17 C17           -5.1467    -5.2213     0.4171 C.ar    
  18 C18           -4.6243    -3.9529     0.2652 C.ar    
  19 C19            4.6962     1.5733    -0.5267 C.2     
  20 O20            4.6821     0.4146    -0.8941 O.2     
  21 C21            5.9375     2.3682    -0.6359 C.ar    
  22 C22            7.0954     1.7915    -1.1605 C.ar    
  23 C23            5.9555     3.7007    -0.2203 C.ar    
  24 C24            7.1172     4.4372    -0.3254 C.ar    
  25 C25            8.2629     3.8579    -0.8415 C.ar    
  26 C26            8.2505     2.5392    -1.2601 C.ar    
  27 H27           -0.9431     1.8774    -0.3747 H       
  28 H28            1.2340    -1.7350     0.4089 H       
  29 H29            3.3384    -0.4658     0.3832 H       
  30 H30            1.1664     3.1382    -0.3930 H       
  31 H31            3.6081     3.0351     0.3358 H       
  32 H32           -4.4505    -1.1744    -0.1719 H       
  33 H33           -1.3381    -4.6911     0.6534 H       
  34 H34           -2.2884    -6.9432     0.9318 H       
  35 H35           -4.7203    -7.2838     0.7810 H       
  36 H36           -6.2135    -5.3763     0.3515 H       
  37 H37           -5.2809    -3.1164     0.0770 H       
  38 H38            7.0872     0.7622    -1.4874 H       
  39 H39            5.0618     4.1542     0.1823 H       
  40 H40            7.1324     5.4683    -0.0046 H       
  41 H41            9.1697     4.4390    -0.9219 H       
  42 H42            9.1482     2.0930    -1.6620 H       
@<TRIPOS>BOND
   1    1    2 ar
   2    1    6 ar
   3    1   27 1
   4    2    3 ar
   5    2    8 1
   6    3    4 ar
   7    3   28 1
   8    4    5 ar
   9    4   29 1
  10    5    6 ar
  11    5    7 1
  12    6   30 1
  13    7   19 am
  14    7   31 1
  15    8    9 1
  16    8   10 2
  17    9   12 1
  18   10   11 1
  19   11   12 2
  20   11   13 1
  21   12   32 1
  22   13   14 ar
  23   13   18 ar
  24   14   15 ar
  25   14   33 1
  26   15   16 ar
  27   15   34 1
  28   16   17 ar
  29   16   35 1
  30   17   18 ar
  31   17   36 1
  32   18   37 1
  33   19   20 2
  34   19   21 1
  35   21   22 ar
  36   21   23 ar
  37   22   26 ar
  38   22   38 1
  39   23   24 ar
  40   23   39 1
  41   24   25 ar
  42   24   40 1
  43   25   26 ar
  44   25   41 1
  45   26   42 1

#	End of record

