#	Name: ASD01148252
#	Creating user name:	WinNT
#	Creation time:	15. 06. 2019 19:02

#	Modifying user name:	WinNT
#	Modification time:	15. 06. 2019 19:02

#	Program:	/corina/corina34_cracker 3.40 0067  02.08.2006

@<TRIPOS>MOLECULE
ASD01148252
  44   46    0    0    0
SMALL
NO_CHARGES


@<TRIPOS>ATOM
   1 C1            -0.0167     1.3802     0.0096 C.ar    
   2 C2             0.0021    -0.0041     0.0020 C.ar    
   3 C3            -1.1879    -0.7115     0.0095 C.ar    
   4 C4            -2.3943    -0.0346     0.0246 C.ar    
   5 C5            -2.4118     1.3476     0.0318 C.ar    
   6 C6            -1.2242     2.0549     0.0305 C.ar    
   7 C7            -3.7266     2.0838     0.0472 C.3     
   8 O8            -4.7319     1.3302     0.7551 O.3     
   9 C9            -3.6325     3.3676     0.9059 C.3     
  10 C10           -4.1241     2.8947     2.2608 C.2     
  11 N11           -4.7189     1.7600     2.1020 N.2     
  12 C12           -3.9519     3.6092     3.5409 C.ar    
  13 C13           -4.4564     3.0584     4.7218 C.ar    
  14 C14           -3.2795     4.8336     3.5726 C.ar    
  15 C15           -3.1190     5.4999     4.7664 C.ar    
  16 C16           -3.6281     4.9516     5.9464 C.ar    
  17 C17           -4.2959     3.7247     5.9154 C.ar    
  18 C18           -3.4554     5.6665     7.2276 C.2     
  19 O19           -2.8705     6.7317     7.2552 O.2     
  20 N20           -3.9465     5.1377     8.3659 N.am    
  21 C21           -4.1861     2.4082    -1.3756 C.3     
  22 F22           -4.3286     1.2209    -2.1018 F       
  23 F23           -5.4146     3.0760    -1.3281 F       
  24 F24           -3.2355     3.2243    -1.9980 F       
  25 Cl25          -1.1662    -2.4473    -0.0006 Cl      
  26 Cl26           1.5167    -0.8522    -0.0175 Cl      
  27 Cl27           1.4745     2.2689     0.0002 Cl      
  28 C28           -3.7850     5.8063     9.5641 C.2     
  29 N29           -3.1638     6.9375     9.5934 N.2     
  30 O30           -2.9982     7.6228    10.8215 O.3     
  31 C31           -2.2930     8.8602    10.7061 C.3     
  32 H32           -3.3227    -0.5862     0.0305 H       
  33 H33           -1.2391     3.1348     0.0365 H       
  34 H34           -2.6017     3.7165     0.9685 H       
  35 H35           -4.2826     4.1472     0.5089 H       
  36 H36           -4.9726     2.1100     4.6979 H       
  37 H37           -2.8854     5.2571     2.6606 H       
  38 H38           -2.5993     6.4463     4.7909 H       
  39 H39           -4.6897     3.3011     6.8275 H       
  40 H40           -4.4133     4.2877     8.3439 H       
  41 H41           -4.1785     5.3825    10.4762 H       
  42 H42           -1.2968     8.6746    10.3046 H       
  43 H43           -2.8362     9.5270    10.0365 H       
  44 H44           -2.2080     9.3230    11.6893 H       
@<TRIPOS>BOND
   1    1    2 ar
   2    1   27 1
   3    1    6 ar
   4    2    3 ar
   5    2   26 1
   6    3    4 ar
   7    3   25 1
   8    4    5 ar
   9    4   32 1
  10    5    6 ar
  11    5    7 1
  12    6   33 1
  13    7    8 1
  14    7    9 1
  15    7   21 1
  16    8   11 1
  17    9   10 1
  18    9   34 1
  19    9   35 1
  20   10   11 2
  21   10   12 1
  22   12   13 ar
  23   12   14 ar
  24   13   17 ar
  25   13   36 1
  26   14   15 ar
  27   14   37 1
  28   15   16 ar
  29   15   38 1
  30   16   17 ar
  31   16   18 1
  32   17   39 1
  33   18   19 2
  34   18   20 am
  35   20   28 1
  36   20   40 1
  37   21   22 1
  38   21   23 1
  39   21   24 1
  40   28   29 2
  41   28   41 1
  42   29   30 1
  43   30   31 1
  44   31   42 1
  45   31   43 1
  46   31   44 1

#	End of record

