#	Name: ASD01918467
#	Creating user name:	WinNT
#	Creation time:	15. 06. 2019 20:11

#	Modifying user name:	WinNT
#	Modification time:	15. 06. 2019 20:11

#	Program:	/corina/corina34_cracker 3.40 0067  02.08.2006

@<TRIPOS>MOLECULE
ASD01918467
  28   29    0    0    0
SMALL
NO_CHARGES


@<TRIPOS>ATOM
   1 C1            -0.1313     1.5152    -0.6413 C.ar    
   2 C2            -1.4091     2.0409    -0.6335 C.ar    
   3 N3            -2.4602     1.2610    -0.4661 N.ar    
   4 C4            -2.3356    -0.0460    -0.3002 C.ar    
   5 C5            -1.0801    -0.6433    -0.2972 C.ar    
   6 C6             0.0415     0.1465    -0.4761 C.ar    
   7 Cl7            1.2429     2.5527    -0.8624 Cl      
   8 N8            -3.4745    -0.8315    -0.1263 N.am    
   9 C9            -4.6846    -0.2487    -0.0150 C.2     
  10 O10           -4.7743     0.9631     0.0255 O.2     
  11 N11           -5.7953    -1.0092     0.0514 N.am    
  12 C12           -7.0405    -0.4111     0.2759 C.ar    
  13 C13           -8.1817    -0.9520    -0.2950 C.ar    
  14 C14           -9.4217    -0.3529    -0.0690 C.ar    
  15 C15           -9.5052     0.7880     0.7312 C.ar    
  16 C16           -8.3613     1.3201     1.2964 C.ar    
  17 C17           -7.1328     0.7213     1.0758 C.ar    
  18 F18           -8.4432     2.4245     2.0703 F       
  19 C19          -10.6045    -0.9065    -0.6564 C.1     
  20 N20          -11.5429    -1.3456    -1.1224 N.1     
  21 H21           -1.5492     3.1036    -0.7657 H       
  22 H22           -0.9821    -1.7103    -0.1616 H       
  23 H23            1.0295    -0.2896    -0.4784 H       
  24 H24           -3.3958    -1.7975    -0.0855 H       
  25 H25           -5.7316    -1.9711    -0.0564 H       
  26 H26           -8.1115    -1.8345    -0.9136 H       
  27 H27          -10.4629     1.2548     0.9083 H       
  28 H28           -6.2421     1.1407     1.5199 H       
@<TRIPOS>BOND
   1    1    2 ar
   2    1    7 1
   3    1    6 ar
   4    2    3 ar
   5    2   21 1
   6    3    4 ar
   7    4    5 ar
   8    4    8 1
   9    5    6 ar
  10    5   22 1
  11    6   23 1
  12    8    9 am
  13    8   24 1
  14    9   10 2
  15    9   11 am
  16   11   12 1
  17   11   25 1
  18   12   13 ar
  19   12   17 ar
  20   13   14 ar
  21   13   26 1
  22   14   15 ar
  23   14   19 1
  24   15   16 ar
  25   15   27 1
  26   16   17 ar
  27   16   18 1
  28   17   28 1
  29   19   20 3

#	End of record

