#	Name: ASD01940032
#	Creating user name:	WinNT
#	Creation time:	15. 06. 2019 20:11

#	Modifying user name:	WinNT
#	Modification time:	15. 06. 2019 20:11

#	Program:	/corina/corina34_cracker 3.40 0067  02.08.2006

@<TRIPOS>MOLECULE
ASD01940032
  47   49    0    0    0
SMALL
NO_CHARGES


@<TRIPOS>ATOM
   1 C1            -0.1662     1.1889    -0.0595 C.ar    
   2 C2            -0.1614    -0.0639    -0.6593 C.ar    
   3 C3            -1.2716    -0.8792    -0.5632 C.ar    
   4 C4            -2.3919    -0.4472     0.1318 C.ar    
   5 C5            -2.3976     0.8041     0.7313 C.ar    
   6 C6            -1.2859     1.6181     0.6414 C.ar    
   7 N7             0.9586     2.0158    -0.1565 N.pl3   
   8 C8             0.8028     3.3870    -0.2519 C.2     
   9 C9             1.8012     4.3504    -0.2293 C.2     
  10 C10            1.3210     5.6557    -0.3477 C.2     
  11 N11            0.0356     5.7996    -0.4611 N.2     
  12 S12           -0.6689     4.2589    -0.4312 S.3     
  13 O13            2.1589     6.7248    -0.3442 O.3     
  14 C14            3.2305     4.0267    -0.0928 C.2     
  15 N15            3.8033     3.9477     1.1595 N.pl3   
  16 N16            3.9571     3.8142    -1.1583 N.2     
  17 C17            5.2260     3.6256     1.2953 C.3     
  18 C18            6.0539     4.9049     1.1583 C.3     
  19 C19            5.4783     2.9993     2.6683 C.3     
  20 O20            5.2100     3.9636     3.6882 O.3     
  21 O21           -3.4851    -1.2502     0.2253 O.3     
  22 C22           -3.3743    -2.3974     0.9450 C.ar    
  23 C23           -2.2140    -2.6602     1.6590 C.ar    
  24 C24           -2.1032    -3.8281     2.3906 C.ar    
  25 C25           -3.1484    -4.7345     2.4111 C.ar    
  26 C26           -4.4234    -3.3050     0.9715 C.ar    
  27 C27           -4.3062    -4.4746     1.6994 C.ar    
  28 Cl28          -0.6515    -4.1577     3.2837 Cl      
  29 Cl29          -5.6153    -5.6144     1.7263 Cl      
  30 H30            0.7104    -0.4001    -1.2010 H       
  31 H31           -1.2680    -1.8533    -1.0296 H       
  32 H32           -3.2702     1.1398     1.2718 H       
  33 H33           -1.2902     2.5919     1.1084 H       
  34 H34            1.8475     1.6275    -0.1568 H       
  35 H35            2.4733     6.9810    -1.2220 H       
  36 H36            3.2641     4.1054     1.9502 H       
  37 H37            4.8990     3.6009    -1.0683 H       
  38 H38            5.5149     2.9206     0.5158 H       
  39 H39            5.8742     5.3510     0.1802 H       
  40 H40            5.7650     5.6099     1.9378 H       
  41 H41            7.1124     4.6652     1.2594 H       
  42 H42            4.8231     2.1384     2.8009 H       
  43 H43            6.5178     2.6787     2.7359 H       
  44 H44            5.3493     3.6348     4.5868 H       
  45 H45           -1.3978    -1.9531     1.6429 H       
  46 H46           -3.0603    -5.6464     2.9832 H       
  47 H47           -5.3291    -3.1002     0.4199 H       
@<TRIPOS>BOND
   1    1    2 ar
   2    1    7 1
   3    1    6 ar
   4    2    3 ar
   5    2   30 1
   6    3    4 ar
   7    3   31 1
   8    4    5 ar
   9    4   21 1
  10    5    6 ar
  11    5   32 1
  12    6   33 1
  13    7    8 1
  14    7   34 1
  15    8    9 2
  16    8   12 1
  17    9   10 1
  18    9   14 1
  19   10   11 2
  20   10   13 1
  21   11   12 1
  22   13   35 1
  23   14   15 1
  24   14   16 2
  25   15   17 1
  26   15   36 1
  27   16   37 1
  28   17   18 1
  29   17   19 1
  30   17   38 1
  31   18   39 1
  32   18   40 1
  33   18   41 1
  34   19   20 1
  35   19   42 1
  36   19   43 1
  37   20   44 1
  38   21   22 1
  39   22   23 ar
  40   22   26 ar
  41   23   24 ar
  42   23   45 1
  43   24   25 ar
  44   24   28 1
  45   25   27 ar
  46   25   46 1
  47   26   27 ar
  48   26   47 1
  49   27   29 1

#	End of record

