#	Name: ASD06020075
#	Creating user name:	WinNT
#	Creation time:	15. 06. 2019 21:04

#	Modifying user name:	WinNT
#	Modification time:	15. 06. 2019 21:04

#	Program:	/corina/corina34_cracker 3.40 0067  02.08.2006

@<TRIPOS>MOLECULE
ASD06020075
  40   43    0    0    0
SMALL
NO_CHARGES


@<TRIPOS>ATOM
   1 C1             4.3400     1.5242     2.1059 C.3     
   2 C2             3.6844     1.8131     3.4578 C.3     
   3 C3             1.4183     2.1320    -0.0511 C.ar    
   4 N4             2.1955     1.6772     0.9113 N.ar    
   5 C5             3.4637     2.0524     0.9995 C.ar    
   6 C6             3.9722     2.9337     0.0652 C.ar    
   7 C7             3.1221     3.3961    -0.9410 C.ar    
   8 N8             1.8613     2.9735    -0.9628 N.ar    
   9 N9             3.5849     4.2825    -1.9022 N.pl3   
  10 C10            2.7623     4.6504    -2.9633 C.ar    
  11 C11            3.1892     5.6280    -3.8679 C.ar    
  12 C12            2.3575     5.9934    -4.9326 C.ar    
  13 C13            1.1057     5.3340    -5.0290 C.ar    
  14 C14            0.7699     4.3949    -4.1056 C.ar    
  15 N15            1.5843     4.0701    -3.1137 N.ar    
  16 S16            4.6673     6.5782    -3.9680 S.3     
  17 C17            4.0641     7.3823    -5.4115 C.2     
  18 N18            2.8893     6.9341    -5.7145 N.2     
  19 C19            4.7943     8.4201    -6.1688 C.ar    
  20 C20            4.2199     8.9945    -7.3052 C.ar    
  21 C21            4.9077     9.9640    -8.0076 C.ar    
  22 C22            6.1635    10.3671    -7.5892 C.ar    
  23 C23            6.7394     9.8038    -6.4654 C.ar    
  24 C24            6.0606     8.8360    -5.7483 C.ar    
  25 F25            6.6219     8.2903    -4.6472 F       
  26 Cl26           2.6450     8.4901    -7.8335 Cl      
  27 O27            4.5068     0.1136     1.9492 O.3     
  28 H28            5.3137     2.0122     2.0625 H       
  29 H29            2.7108     1.3251     3.5011 H       
  30 H30            4.3183     1.4311     4.2580 H       
  31 H31            3.5572     2.8890     3.5773 H       
  32 H32            0.3909     1.8022    -0.0961 H       
  33 H33            5.0016     3.2572     0.1122 H       
  34 H34            4.4817     4.6460    -1.8351 H       
  35 H35            0.4237     5.5766    -5.8304 H       
  36 H36           -0.1854     3.8974    -4.1855 H       
  37 H37            4.4644    10.4086    -8.8863 H       
  38 H38            6.6967    11.1254    -8.1433 H       
  39 H39            7.7201    10.1231    -6.1450 H       
  40 H40            5.0611    -0.2947     2.6282 H       
@<TRIPOS>BOND
   1    1    2 1
   2    1    5 1
   3    1   27 1
   4    1   28 1
   5    2   29 1
   6    2   30 1
   7    2   31 1
   8    3    4 ar
   9    3    8 ar
  10    3   32 1
  11    4    5 ar
  12    5    6 ar
  13    6    7 ar
  14    6   33 1
  15    7    8 ar
  16    7    9 1
  17    9   10 1
  18    9   34 1
  19   10   11 ar
  20   10   15 ar
  21   11   12 ar
  22   11   16 1
  23   12   13 ar
  24   12   18 1
  25   13   14 ar
  26   13   35 1
  27   14   15 ar
  28   14   36 1
  29   16   17 1
  30   17   18 2
  31   17   19 1
  32   19   20 ar
  33   19   24 ar
  34   20   21 ar
  35   20   26 1
  36   21   22 ar
  37   21   37 1
  38   22   23 ar
  39   22   38 1
  40   23   24 ar
  41   23   39 1
  42   24   25 1
  43   27   40 1

#	End of record

