#	Name: ASD05720063
#	Creating user name:	WinNT
#	Creation time:	15. 06. 2019 21:01

#	Modifying user name:	WinNT
#	Modification time:	15. 06. 2019 21:01

#	Program:	/corina/corina34_cracker 3.40 0067  02.08.2006

@<TRIPOS>MOLECULE
ASD05720063
  34   35    0    0    0
SMALL
NO_CHARGES


@<TRIPOS>ATOM
   1 C1             0.1483     1.4327     0.1429 C.2     
   2 N2             0.0751     0.0877     0.1904 N.am    
   3 O3             1.2143     1.9759    -0.0696 O.2     
   4 O4            -0.9606     2.1741     0.3253 O.3     
   5 C5             1.2806    -0.7192    -0.0140 C.3     
   6 C6             1.4853    -0.9599    -1.5110 C.3     
   7 O7             0.4095    -1.7524    -2.0176 O.3     
   8 C8             1.1227    -2.0623     0.7016 C.3     
   9 C9             2.3206    -3.0139     0.6903 C.3     
  10 C10            1.9367    -2.2826     1.9782 C.3     
  11 C11           -0.8071     3.6165     0.2607 C.3     
  12 C12           -2.1439     4.2746     0.4865 C.ar    
  13 C13           -2.5432     4.6064     1.7677 C.ar    
  14 C14           -3.7695     5.2099     1.9749 C.ar    
  15 C15           -4.5962     5.4821     0.9009 C.ar    
  16 C16           -4.1964     5.1511    -0.3803 C.ar    
  17 C17           -2.9683     4.5515    -0.5880 C.ar    
  18 H18           -0.7759    -0.3459     0.3600 H       
  19 H19            2.1441    -0.1913     0.3905 H       
  20 H20            1.5090    -0.0033    -2.0330 H       
  21 H21            2.4281    -1.4835    -1.6692 H       
  22 H22            0.4739    -1.9447    -2.9631 H       
  23 H23            0.1277    -2.5051     0.6560 H       
  24 H24            2.1138    -4.0828     0.6377 H       
  25 H25            3.2213    -2.6831     0.1730 H       
  26 H26            2.5847    -1.4707     2.3082 H       
  27 H27            1.4773    -2.8704     2.7729 H       
  28 H28           -0.1071     3.9423     1.0301 H       
  29 H29           -0.4249     3.8977    -0.7207 H       
  30 H30           -1.8974     4.3937     2.6067 H       
  31 H31           -4.0818     5.4685     2.9759 H       
  32 H32           -5.5545     5.9530     1.0629 H       
  33 H33           -4.8424     5.3635    -1.2194 H       
  34 H34           -2.6544     4.2963    -1.5893 H       
@<TRIPOS>BOND
   1    1    2 am
   2    1    3 2
   3    1    4 1
   4    2    5 1
   5    2   18 1
   6    4   11 1
   7    5    6 1
   8    5    8 1
   9    5   19 1
  10    6    7 1
  11    6   20 1
  12    6   21 1
  13    7   22 1
  14    8    9 1
  15    8   10 1
  16    8   23 1
  17    9   10 1
  18    9   24 1
  19    9   25 1
  20   10   26 1
  21   10   27 1
  22   11   12 1
  23   11   28 1
  24   11   29 1
  25   12   13 ar
  26   12   17 ar
  27   13   14 ar
  28   13   30 1
  29   14   15 ar
  30   14   31 1
  31   15   16 ar
  32   15   32 1
  33   16   17 ar
  34   16   33 1
  35   17   34 1

#	End of record

