#	Name: ASD07931764
#	Creating user name:	WinNT
#	Creation time:	15. 06. 2019 21:13

#	Modifying user name:	WinNT
#	Modification time:	15. 06. 2019 21:13

#	Program:	/corina/corina34_cracker 3.40 0067  02.08.2006

@<TRIPOS>MOLECULE
ASD07931764
  65   68    0    0    0
SMALL
NO_CHARGES


@<TRIPOS>ATOM
   1 C1            -0.0180     1.4754     0.0102 C.2     
   2 C2             0.0021    -0.0041     0.0020 C.2     
   3 N3             1.1814     2.1509     0.0023 N.am    
   4 N4             1.1194    -0.6400     0.4288 N.am    
   5 C5             2.2493     0.1650     0.9143 C.3     
   6 C6             2.4261     1.3707    -0.0208 C.3     
   7 C7            -1.2008     2.1485     0.0195 C.2     
   8 C8            -1.2247     3.5486     0.0291 C.2     
   9 C9            -0.0458     4.2425     0.0303 C.2     
  10 C10            1.2139     3.4948     0.0143 C.2     
  11 O11           -0.9642    -0.6358    -0.3794 O.2     
  12 O12            2.2807     4.0852     0.0118 O.2     
  13 C13            1.2002    -2.1026     0.4064 C.3     
  14 O14            3.1306    -2.1382    -1.0606 O.3     
  15 C15            1.7676    -2.5615    -0.9383 C.3     
  16 C16            1.7492    -4.1032    -1.0158 C.3     
  17 C17            3.0929    -4.4134    -1.7303 C.3     
  18 C18            3.9918    -3.2826    -1.1699 C.3     
  19 C19            5.1250    -2.9954    -2.1210 C.ar    
  20 C20            6.3698    -3.5552    -1.9020 C.ar    
  21 C21            7.4093    -3.2917    -2.7743 C.ar    
  22 C22            7.2038    -2.4689    -3.8659 C.ar    
  23 C23            5.9587    -1.9099    -4.0855 C.ar    
  24 C24            4.9181    -2.1768    -3.2155 C.ar    
  25 C25            8.3373    -2.1809    -4.8164 C.3     
  26 F26            8.3461    -3.1392    -5.8356 F       
  27 F27            8.1669    -0.9090    -5.3736 F       
  28 F28            9.5511    -2.2272    -4.1223 F       
  29 C29            0.9373    -1.9744    -2.0815 C.3     
  30 C30            0.4239     6.4402     1.0348 C.2     
  31 N31            0.2552     7.6848     0.6804 N.2     
  32 C32           -0.3161     7.7283    -0.5326 C.2     
  33 C33           -0.5113     6.4636    -0.9513 C.2     
  34 N34           -0.0431     5.6402     0.0404 N.pl3   
  35 C35           -0.6774     8.9771    -1.2948 C.3     
  36 H36            2.0426     0.5136     1.9261 H       
  37 H37            3.1572    -0.4381     0.9099 H       
  38 H38            2.6247     1.0242    -1.0350 H       
  39 H39            3.2543     1.9881     0.3270 H       
  40 H40           -2.1297     1.5976     0.0190 H       
  41 H41           -2.1668     4.0767     0.0353 H       
  42 H42            1.8522    -2.4428     1.2110 H       
  43 H43            0.2042    -2.5236     0.5432 H       
  44 H44            1.7303    -4.5416    -0.0180 H       
  45 H45            0.9045    -4.4517    -1.6100 H       
  46 H46            3.4722    -5.3946    -1.4450 H       
  47 H47            2.9899    -4.3335    -2.8125 H       
  48 H48            4.3803    -3.5588    -0.1897 H       
  49 H49            6.5304    -4.1980    -1.0491 H       
  50 H50            8.3820    -3.7285    -2.6028 H       
  51 H51            5.7983    -1.2668    -4.9381 H       
  52 H52            3.9444    -1.7430    -3.3891 H       
  53 H53            1.3528    -2.2980    -3.0358 H       
  54 H54           -0.0928    -2.3209    -1.9975 H       
  55 H55            0.9603    -0.8861    -2.0255 H       
  56 H56            0.8650     6.1025     1.9610 H       
  57 H57           -0.9521     6.1566    -1.8883 H       
  58 H58            0.1651     9.2797    -1.9167 H       
  59 H59           -1.5430     8.7793    -1.9270 H       
  60 H60           -0.9156     9.7756    -0.5921 H       
  61 C61           15.4936    15.9837     6.9683 C.2     
  62 O62           15.5100    14.7756     6.9617 O.2     
  63 O63           16.6468    16.6706     6.9610 O.3     
  64 H64           14.5511    16.5109     6.9756 H       
  65 H65           16.5831    17.6355     6.9668 H       
@<TRIPOS>BOND
   1    1    2 1
   2    1    3 1
   3    1    7 2
   4    2    4 am
   5    2   11 2
   6    3    6 1
   7    3   10 am
   8    4    5 1
   9    4   13 1
  10    5    6 1
  11    5   36 1
  12    5   37 1
  13    6   38 1
  14    6   39 1
  15    7    8 1
  16    7   40 1
  17    8    9 2
  18    8   41 1
  19    9   10 1
  20    9   34 1
  21   10   12 2
  22   13   15 1
  23   13   42 1
  24   13   43 1
  25   14   15 1
  26   14   18 1
  27   15   16 1
  28   15   29 1
  29   16   17 1
  30   16   44 1
  31   16   45 1
  32   17   18 1
  33   17   46 1
  34   17   47 1
  35   18   19 1
  36   18   48 1
  37   19   20 ar
  38   19   24 ar
  39   20   21 ar
  40   20   49 1
  41   21   22 ar
  42   21   50 1
  43   22   23 ar
  44   22   25 1
  45   23   24 ar
  46   23   51 1
  47   24   52 1
  48   25   26 1
  49   25   27 1
  50   25   28 1
  51   29   53 1
  52   29   54 1
  53   29   55 1
  54   30   31 2
  55   30   34 1
  56   30   56 1
  57   31   32 1
  58   32   33 2
  59   32   35 1
  60   33   34 1
  61   33   57 1
  62   35   58 1
  63   35   59 1
  64   35   60 1
  65   61   62 2
  66   61   63 1
  67   61   64 1
  68   63   65 1

#	End of record

