#	Name: ASD01884725
#	Creating user name:	WinNT
#	Creation time:	15. 06. 2019 19:48

#	Modifying user name:	WinNT
#	Modification time:	15. 06. 2019 19:48

#	Program:	/corina/corina34_cracker 3.40 0067  02.08.2006

@<TRIPOS>MOLECULE
ASD01884725
  46   48    0    0    0
SMALL
NO_CHARGES


@<TRIPOS>ATOM
   1 C1            -0.1975     1.5645    -0.2068 C.2     
   2 C2            -0.3603     0.1689    -0.1538 C.2     
   3 C3             1.0477     2.0988    -0.0702 C.2     
   4 C4             2.1488     1.2365     0.1219 C.2     
   5 C5             1.9509    -0.1131     0.1678 C.2     
   6 N6             0.7055    -0.6322     0.0308 N.am    
   7 C7             3.5154     1.7951     0.2729 C.ar    
   8 H8            -1.0521     2.2071    -0.3590 H       
   9 O9            -1.4728    -0.3181    -0.2754 O.2     
  10 C10            0.5177    -2.0841     0.0839 C.3     
  11 C11            0.2671    -2.5064     1.5087 C.ar    
  12 C12            4.1835     1.6862     1.4910 C.ar    
  13 C13            5.4536     2.2063     1.6283 C.ar    
  14 C14            6.0663     2.8377     0.5546 C.ar    
  15 C15            5.4033     2.9477    -0.6599 C.ar    
  16 C16            4.1354     2.4244    -0.8049 C.ar    
  17 C17           -1.0249    -2.5538     1.9982 C.ar    
  18 C18           -1.2554    -2.9410     3.3048 C.ar    
  19 C19           -0.1928    -3.2812     4.1229 C.ar    
  20 C20            1.1000    -3.2336     3.6324 C.ar    
  21 C21            1.3288    -2.8517     2.3239 C.ar    
  22 Cl22          -0.4814    -3.7671     5.7643 Cl      
  23 O23            7.3176     3.3497     0.6930 O.3     
  24 C24            7.8884     3.9862    -0.4520 C.3     
  25 C25            1.2477     3.5915    -0.1239 C.3     
  26 C26            1.2420     4.1583     1.2972 C.3     
  27 O27            1.4049     5.5770     1.2449 O.3     
  28 H28            2.7931    -0.7731     0.3144 H       
  29 H29           -0.3364    -2.3629    -0.5332 H       
  30 H30            1.4134    -2.5802    -0.2899 H       
  31 H31            3.7072     1.1954     2.3268 H       
  32 H32            5.9717     2.1226     2.5722 H       
  33 H33            5.8825     3.4395    -1.4935 H       
  34 H34            3.6201     2.5100    -1.7503 H       
  35 H35           -1.8543    -2.2878     1.3596 H       
  36 H36           -2.2648    -2.9776     3.6872 H       
  37 H37            1.9299    -3.4991     4.2705 H       
  38 H38            2.3379    -2.8145     1.9409 H       
  39 H39            8.8863     4.3492    -0.2062 H       
  40 H40            7.9539     3.2699    -1.2710 H       
  41 H41            7.2604     4.8249    -0.7523 H       
  42 H42            2.2029     3.8132    -0.5997 H       
  43 H43            0.4411     4.0456    -0.6994 H       
  44 H44            0.2946     3.9189     1.7801 H       
  45 H45            2.0612     3.7193     1.8667 H       
  46 H46            1.4107     6.0045     2.1122 H       
@<TRIPOS>BOND
   1    1    2 1
   2    1    3 2
   3    1    8 1
   4    2    9 2
   5    2    6 am
   6    3    4 1
   7    3   25 1
   8    4    5 2
   9    4    7 1
  10    5    6 1
  11    5   28 1
  12    6   10 1
  13    7   12 ar
  14    7   16 ar
  15   10   11 1
  16   10   29 1
  17   10   30 1
  18   11   17 ar
  19   11   21 ar
  20   12   13 ar
  21   12   31 1
  22   13   14 ar
  23   13   32 1
  24   14   15 ar
  25   14   23 1
  26   15   16 ar
  27   15   33 1
  28   16   34 1
  29   17   18 ar
  30   17   35 1
  31   18   19 ar
  32   18   36 1
  33   19   20 ar
  34   19   22 1
  35   20   21 ar
  36   20   37 1
  37   21   38 1
  38   23   24 1
  39   24   39 1
  40   24   40 1
  41   24   41 1
  42   25   26 1
  43   25   42 1
  44   25   43 1
  45   26   27 1
  46   26   44 1
  47   26   45 1
  48   27   46 1

#	End of record

