#	Name: ASD01028349
#	Creating user name:	WinNT
#	Creation time:	15. 06. 2019 18:57

#	Modifying user name:	WinNT
#	Modification time:	15. 06. 2019 18:57

#	Program:	/corina/corina34_cracker 3.40 0067  02.08.2006

@<TRIPOS>MOLECULE
ASD01028349
  49   53    0    0    0
SMALL
NO_CHARGES


@<TRIPOS>ATOM
   1 C1            -0.0171     1.4121     0.0183 C.ar    
   2 C2             0.0021    -0.0041     0.0108 C.ar    
   3 C3             1.2106     2.1118     0.0024 C.ar    
   4 C4             2.3792     1.3716    -0.0201 C.ar    
   5 C5             2.3158    -0.0161    -0.0262 C.ar    
   6 N6             1.1704    -0.6564    -0.0108 N.ar    
   7 O7             1.2422     3.4673     0.0084 O.3     
   8 C8             2.5264     4.0858     0.1105 C.3     
   9 C9             2.3752     5.4622     0.7052 C.2     
  10 N10            3.1440     5.9995     1.6775 N.pl3   
  11 C11            2.6461     7.2614     1.9007 C.2     
  12 N12            1.6262     7.4223     1.0736 N.2     
  13 N13            1.4783     6.3554     0.3685 N.2     
  14 N14            4.2380     5.5383     2.4124 N.2     
  15 C15            4.8006     6.3034     3.3216 C.2     
  16 C16            4.3125     7.6031     3.5742 C.2     
  17 C17            3.2496     8.0800     2.8742 C.2     
  18 C18            5.9621     5.7942     4.0914 C.ar    
  19 C19           -1.2148    -0.7042     0.0267 C.ar    
  20 C20            6.4526     4.5122     3.8510 C.ar    
  21 C21            7.5337     4.0437     4.5697 C.ar    
  22 C22            8.1302     4.8442     5.5273 C.ar    
  23 C23            7.6475     6.1175     5.7700 C.ar    
  24 C24            6.5703     6.5982     5.0535 C.ar    
  25 C25           -2.4010    -0.0062     0.0492 C.ar    
  26 C26           -2.4082     1.3917     0.0564 C.ar    
  27 C27           -1.2425     2.0939     0.0471 C.ar    
  28 O28           -3.5783    -0.6836     0.0641 O.3     
  29 C29           -4.7754     0.0965     0.0872 C.3     
  30 C30            3.1508     4.1975    -1.2818 C.3     
  31 H31            3.3369     1.8706    -0.0331 H       
  32 H32            3.2345    -0.5836    -0.0442 H       
  33 H33            3.1705     3.4824     0.7502 H       
  34 H34            4.7845     8.2199     4.3246 H       
  35 H35            2.8717     9.0739     3.0634 H       
  36 H36           -1.2202    -1.7841     0.0209 H       
  37 H37            5.9875     3.8862     3.1039 H       
  38 H38            7.9145     3.0502     4.3845 H       
  39 H39            8.9757     4.4735     6.0876 H       
  40 H40            8.1167     6.7382     6.5191 H       
  41 H41            6.1942     7.5926     5.2438 H       
  42 H42           -3.3497     1.9205     0.0737 H       
  43 H43           -1.2611     3.1737     0.0528 H       
  44 H44           -4.7852     0.7205     0.9809 H       
  45 H45           -4.8133     0.7302    -0.7988 H       
  46 H46           -5.6407    -0.5662     0.0973 H       
  47 H47            2.5067     4.8009    -1.9215 H       
  48 H48            4.1303     4.6693    -1.2040 H       
  49 H49            3.2601     3.2020    -1.7120 H       
@<TRIPOS>BOND
   1    1    2 ar
   2    1    3 ar
   3    1   27 ar
   4    2   19 ar
   5    2    6 ar
   6    3    4 ar
   7    3    7 1
   8    4    5 ar
   9    4   31 1
  10    5    6 ar
  11    5   32 1
  12    7    8 1
  13    8    9 1
  14    8   30 1
  15    8   33 1
  16    9   10 1
  17    9   13 2
  18   10   11 1
  19   10   14 1
  20   11   12 2
  21   11   17 1
  22   12   13 1
  23   14   15 2
  24   15   16 1
  25   15   18 1
  26   16   17 2
  27   16   34 1
  28   17   35 1
  29   18   20 ar
  30   18   24 ar
  31   19   25 ar
  32   19   36 1
  33   20   21 ar
  34   20   37 1
  35   21   22 ar
  36   21   38 1
  37   22   23 ar
  38   22   39 1
  39   23   24 ar
  40   23   40 1
  41   24   41 1
  42   25   26 ar
  43   25   28 1
  44   26   27 ar
  45   26   42 1
  46   27   43 1
  47   28   29 1
  48   29   44 1
  49   29   45 1
  50   29   46 1
  51   30   47 1
  52   30   48 1
  53   30   49 1

#	End of record

