#	Name: ASD05720247
#	Creating user name:	WinNT
#	Creation time:	15. 06. 2019 21:02

#	Modifying user name:	WinNT
#	Modification time:	15. 06. 2019 21:02

#	Program:	/corina/corina34_cracker 3.40 0067  02.08.2006

@<TRIPOS>MOLECULE
ASD05720247
  40   41    0    0    0
SMALL
NO_CHARGES


@<TRIPOS>ATOM
   1 N1            -0.0184     1.3816    -0.1517 N.pl3   
   2 N2             0.0439    -0.0193    -0.2270 N.2     
   3 C3             1.2849    -0.3597     0.0068 C.2     
   4 N4             2.0059     0.7366     0.2240 N.2     
   5 C5             1.2356     1.8016     0.1325 C.2     
   6 C6            -1.2031     2.2207    -0.3480 C.3     
   7 O7            -1.8386     2.4497     0.9112 O.3     
   8 C8            -3.0116     3.2619     0.8311 C.3     
   9 C9            -3.6053     3.4398     2.2300 C.3     
  10 Si10          -5.1345     4.4987     2.1255 Si      
  11 C11           -6.3867     3.6739     1.0198 C.3     
  12 C12           -5.8574     4.7153     3.8289 C.3     
  13 C13           -4.6888     6.1658     1.4236 C.3     
  14 C14            1.6656     3.2064     0.3093 C.ar    
  15 C15            0.7222     4.1988     0.5768 C.ar    
  16 C16            1.1298     5.5086     0.7408 C.ar    
  17 C17            2.4735     5.8362     0.6392 C.ar    
  18 C18            3.4119     4.8546     0.3735 C.ar    
  19 C19            3.0161     3.5422     0.2146 C.ar    
  20 F20            0.2183     6.4715     0.9999 F       
  21 Br21           3.0253     7.6309     0.8640 Br      
  22 H22            1.6641    -1.3709     0.0217 H       
  23 H23           -0.9048     3.1745    -0.7832 H       
  24 H24           -1.8982     1.7166    -1.0195 H       
  25 H25           -2.7508     4.2373     0.4204 H       
  26 H26           -3.7442     2.7794     0.1842 H       
  27 H27           -3.8661     2.4644     2.6407 H       
  28 H28           -2.8727     3.9223     2.8769 H       
  29 H29           -6.6475     2.6985     1.4305 H       
  30 H30           -7.2814     4.2935     0.9587 H       
  31 H31           -5.9637     3.5472     0.0232 H       
  32 H32           -5.1248     5.1978     4.4758 H       
  33 H33           -6.7522     5.3348     3.7678 H       
  34 H34           -6.1183     3.7399     4.2396 H       
  35 H35           -4.2658     6.0391     0.4270 H       
  36 H36           -5.5835     6.7853     1.3625 H       
  37 H37           -3.9562     6.6484     2.0705 H       
  38 H38           -0.3243     3.9438     0.6552 H       
  39 H39            4.4570     5.1154     0.2951 H       
  40 H40            3.7506     2.7767     0.0121 H       
@<TRIPOS>BOND
   1    1    2 1
   2    1    5 1
   3    1    6 1
   4    2    3 2
   5    3    4 1
   6    3   22 1
   7    4    5 2
   8    5   14 1
   9    6    7 1
  10    6   23 1
  11    6   24 1
  12    7    8 1
  13    8    9 1
  14    8   25 1
  15    8   26 1
  16    9   10 1
  17    9   27 1
  18    9   28 1
  19   10   11 1
  20   10   12 1
  21   10   13 1
  22   11   29 1
  23   11   30 1
  24   11   31 1
  25   12   32 1
  26   12   33 1
  27   12   34 1
  28   13   35 1
  29   13   36 1
  30   13   37 1
  31   14   15 ar
  32   14   19 ar
  33   15   16 ar
  34   15   38 1
  35   16   17 ar
  36   16   20 1
  37   17   18 ar
  38   17   21 1
  39   18   19 ar
  40   18   39 1
  41   19   40 1

#	End of record

