#	Name: ASD01871009
#	Creating user name:	WinNT
#	Creation time:	15. 06. 2019 19:39

#	Modifying user name:	WinNT
#	Modification time:	15. 06. 2019 19:39

#	Program:	/corina/corina34_cracker 3.40 0067  02.08.2006

@<TRIPOS>MOLECULE
ASD01871009
  35   37    0    0    0
SMALL
NO_CHARGES


@<TRIPOS>ATOM
   1 C1            -0.0167     1.3799     0.0096 C.ar    
   2 C2             0.0021    -0.0041     0.0020 C.ar    
   3 C3             1.2073    -0.6845    -0.0132 C.ar    
   4 C4             2.3970     0.0147    -0.0204 C.ar    
   5 C5             2.3836     1.4081    -0.0128 C.ar    
   6 C6             1.1675     2.0884     0.0021 C.ar    
   7 C7             3.6599     2.1650    -0.0200 C.2     
   8 C8             3.7883     3.3717    -0.6912 C.2     
   9 C9             5.0173     3.9384    -0.6021 C.2     
  10 S10            5.9560     2.8649     0.3594 S.3     
  11 N11            4.7209     1.7309     0.6113 N.2     
  12 C12            2.6544     4.0019    -1.4580 C.3     
  13 N13            5.4335     5.1410    -1.1723 N.am    
  14 C14            6.6976     5.5714    -0.9899 C.2     
  15 C15            7.1474     6.8710    -1.6060 C.3     
  16 O16            7.4733     4.9126    -0.3300 O.2     
  17 C17            8.1698     6.7979    -2.7420 C.3     
  18 C18            8.5942     7.3050    -1.3623 C.3     
  19 C19            8.8668     8.8032    -1.2134 C.3     
  20 Br20          -1.6244    -0.9686     0.0131 Br      
  21 H21           -0.9597     1.9062     0.0170 H       
  22 H22            1.2167    -1.7644    -0.0191 H       
  23 H23            3.3370    -0.5171    -0.0315 H       
  24 H24            1.1518     3.1683     0.0077 H       
  25 H25            2.0875     4.6563    -0.7959 H       
  26 H26            3.0559     4.5840    -2.2875 H       
  27 H27            1.9995     3.2213    -1.8453 H       
  28 H28            4.8132     5.6679    -1.7001 H       
  29 H29            6.3896     7.6526    -1.6606 H       
  30 H30            8.5171     5.8097    -3.0436 H       
  31 H31            8.0848     7.5315    -3.5436 H       
  32 H32            9.2207     6.6505    -0.7562 H       
  33 H33            8.5605     9.3203    -2.1228 H       
  34 H34            8.3023     9.1928    -0.3662 H       
  35 H35            9.9317     8.9638    -1.0453 H       
@<TRIPOS>BOND
   1    1    2 ar
   2    1    6 ar
   3    1   21 1
   4    2    3 ar
   5    2   20 1
   6    3    4 ar
   7    3   22 1
   8    4    5 ar
   9    4   23 1
  10    5    6 ar
  11    5    7 1
  12    6   24 1
  13    7    8 1
  14    7   11 2
  15    8    9 2
  16    8   12 1
  17    9   10 1
  18    9   13 1
  19   10   11 1
  20   12   25 1
  21   12   26 1
  22   12   27 1
  23   13   14 am
  24   13   28 1
  25   14   16 2
  26   14   15 1
  27   15   17 1
  28   15   18 1
  29   15   29 1
  30   17   18 1
  31   17   30 1
  32   17   31 1
  33   18   19 1
  34   18   32 1
  35   19   33 1
  36   19   34 1
  37   19   35 1

#	End of record

