#	Name: ASD03091447
#	Creating user name:	WinNT
#	Creation time:	15. 06. 2019 20:30

#	Modifying user name:	WinNT
#	Modification time:	15. 06. 2019 20:30

#	Program:	/corina/corina34_cracker 3.40 0067  02.08.2006

@<TRIPOS>MOLECULE
ASD03091447
  30   32    0    0    0
SMALL
NO_CHARGES


@<TRIPOS>ATOM
   1 C1             1.0382     3.3795    -0.1320 C.3     
   2 C2             0.3204     2.1001    -0.5667 C.3     
   3 N3             0.3987     1.1036     0.5091 N.3     
   4 C4            -0.2703     1.5828     1.7253 C.3     
   5 C5             0.4289     2.8467     2.2302 C.3     
   6 C6             1.8918     2.5226     2.5516 C.3     
   7 N7             2.5767     2.1477     1.3071 N.am    
   8 C8             2.5089     3.0619     0.1589 C.3     
   9 C9             0.3808     3.9221     1.1406 C.3     
  10 C10            3.2546     0.9861     1.2201 C.2     
  11 O11            3.3893     0.2859     2.2045 O.2     
  12 S12            4.0830     0.1785    -2.3584 S.3     
  13 N13            3.1907     0.7305    -1.1965 N.2     
  14 C14            3.8345     0.5634    -0.0729 C.2     
  15 N15            5.0308    -0.0014    -0.1435 N.2     
  16 C16            5.3941    -0.3138    -1.3600 C.2     
  17 H17            0.9753     4.1220    -0.9276 H       
  18 H18           -0.7250     2.3244    -0.7787 H       
  19 H19            0.7959     1.7039    -1.4640 H       
  20 H20            0.0164     0.2188     0.2109 H       
  21 H21           -1.3127     1.8095     1.5011 H       
  22 H22           -0.2240     0.8108     2.4934 H       
  23 H23           -0.0716     3.2067     3.1291 H       
  24 H24            2.3738     3.3993     2.9843 H       
  25 H25            1.9358     1.6930     3.2573 H       
  26 H26            2.9597     2.5877    -0.7129 H       
  27 H27            3.0423     3.9831     0.3932 H       
  28 H28            0.9185     4.8077     1.4791 H       
  29 H29           -0.6568     4.1827     0.9317 H       
  30 H30            6.3173    -0.7802    -1.6706 H       
@<TRIPOS>BOND
   1    1    2 1
   2    1    8 1
   3    1    9 1
   4    1   17 1
   5    2    3 1
   6    2   18 1
   7    2   19 1
   8    3    4 1
   9    3   20 1
  10    4    5 1
  11    4   21 1
  12    4   22 1
  13    5    6 1
  14    5    9 1
  15    5   23 1
  16    6    7 1
  17    6   24 1
  18    6   25 1
  19    7    8 1
  20    7   10 am
  21    8   26 1
  22    8   27 1
  23    9   28 1
  24    9   29 1
  25   10   11 2
  26   10   14 1
  27   12   13 1
  28   12   16 1
  29   13   14 2
  30   14   15 1
  31   15   16 2
  32   16   30 1

#	End of record

