#	Name: ASD00310385
#	Creating user name:	WinNT
#	Creation time:	15. 06. 2019 18:34

#	Modifying user name:	WinNT
#	Modification time:	15. 06. 2019 18:34

#	Program:	/corina/corina34_cracker 3.40 0067  02.08.2006

@<TRIPOS>MOLECULE
ASD00310385
  47   50    0    0    0
SMALL
NO_CHARGES


@<TRIPOS>ATOM
   1 N1            -0.0163     1.3507     0.0095 N.pl3   
   2 C2             0.0021    -0.0041     0.0020 C.2     
   3 C3             1.2911    -0.4482    -0.0127 C.2     
   4 C4             2.1469     0.7534    -0.0144 C.ar    
   5 C5             3.5227     0.9571    -0.0264 C.ar    
   6 C6             4.0242     2.2523    -0.0243 C.ar    
   7 C7             3.1475     3.3426    -0.0096 C.ar    
   8 C8             1.7858     3.1434     0.0028 C.ar    
   9 C9             1.2695     1.8503    -0.0001 C.ar    
  10 C10            1.7393    -1.8471    -0.0237 C.2     
  11 O11            2.9284    -2.1049    -0.0361 O.2     
  12 N12            0.8334    -2.8450    -0.0202 N.am    
  13 S13            1.3386    -4.4220    -0.0327 S.o2    
  14 O14            0.1342    -5.1757    -0.0509 O.2     
  15 O15            2.2596    -4.4864    -1.1129 O.2     
  16 C16            2.1986    -4.6343     1.5504 C.3     
  17 C17            5.4903     2.4798    -0.0370 C.ar    
  18 C18            6.0538     3.3575    -0.9611 C.ar    
  19 C19            7.4182     3.5653    -0.9685 C.ar    
  20 C20            8.2260     2.9038    -0.0612 C.ar    
  21 C21            7.6721     2.0314     0.8582 C.ar    
  22 C22            6.3082     1.8208     0.8787 C.ar    
  23 C23            9.7153     3.1341    -0.0749 C.3     
  24 C24           10.3753     2.9790     1.3054 C.3     
  25 C25           11.5363     2.2747     0.5838 C.3     
  26 C26           10.5250     1.9024    -0.5132 C.3     
  27 O27           10.0847     4.3357    -0.7543 O.3     
  28 Cl28           3.7819     4.9585    -0.0064 Cl      
  29 H29           -0.8205     1.8930     0.0163 H       
  30 H30           -0.8729    -0.6371     0.0070 H       
  31 H31            4.1968     0.1134    -0.0370 H       
  32 H32            1.1168     3.9912     0.0145 H       
  33 H33           -0.1145    -2.6394    -0.0103 H       
  34 H34            1.5071    -4.4350     2.3691 H       
  35 H35            2.5690    -5.6565     1.6284 H       
  36 H36            3.0363    -3.9391     1.6049 H       
  37 H37            5.4240     3.8740    -1.6704 H       
  38 H38            7.8559     4.2454    -1.6842 H       
  39 H39            8.3075     1.5173     1.5641 H       
  40 H40            5.8762     1.1431     1.6002 H       
  41 H41           10.6569     3.9271     1.7637 H       
  42 H42            9.8229     2.3278     1.9828 H       
  43 H43           12.3172     2.9556     0.2451 H       
  44 H44           11.9294     1.4143     1.1255 H       
  45 H45           10.0136     0.9569    -0.3330 H       
  46 H46           10.9276     1.9813    -1.5231 H       
  47 H47            9.6912     4.4278    -1.6328 H       
@<TRIPOS>BOND
   1    1    2 1
   2    1    9 1
   3    1   29 1
   4    2    3 2
   5    2   30 1
   6    3    4 1
   7    3   10 1
   8    4    5 ar
   9    4    9 ar
  10    5    6 ar
  11    5   31 1
  12    6    7 ar
  13    6   17 1
  14    7    8 ar
  15    7   28 1
  16    8    9 ar
  17    8   32 1
  18   10   11 2
  19   10   12 am
  20   12   13 am
  21   12   33 1
  22   13   14 2
  23   13   15 2
  24   13   16 1
  25   16   34 1
  26   16   35 1
  27   16   36 1
  28   17   18 ar
  29   17   22 ar
  30   18   19 ar
  31   18   37 1
  32   19   20 ar
  33   19   38 1
  34   20   21 ar
  35   20   23 1
  36   21   22 ar
  37   21   39 1
  38   22   40 1
  39   23   24 1
  40   23   26 1
  41   23   27 1
  42   24   25 1
  43   24   41 1
  44   24   42 1
  45   25   26 1
  46   25   43 1
  47   25   44 1
  48   26   45 1
  49   26   46 1
  50   27   47 1

#	End of record

