#	Name: ASD01420186
#	Creating user name:	WinNT
#	Creation time:	15. 06. 2019 19:20

#	Modifying user name:	WinNT
#	Modification time:	15. 06. 2019 19:20

#	Program:	/corina/corina34_cracker 3.40 0067  02.08.2006

@<TRIPOS>MOLECULE
ASD01420186
  59   61    0    0    0
SMALL
NO_CHARGES


@<TRIPOS>ATOM
   1 C1            -0.1759     1.0522    -0.5083 C.2     
   2 O2            -0.0189    -0.1434    -0.3504 O.2     
   3 C3             2.2955     1.4917    -0.3676 C.3     
   4 N4             0.8939     1.8694    -0.5743 N.am    
   5 C5             0.8787     3.3061    -0.8672 C.3     
   6 C6             2.3044     3.7959    -0.8342 C.ar    
   7 C7             2.8395     5.0553    -1.0393 C.ar    
   8 C8             4.2092     5.2507    -0.9511 C.ar    
   9 C9             5.0418     4.1805    -0.6567 C.ar    
  10 C10            4.5037     2.9256    -0.4528 C.ar    
  11 C11            3.1352     2.7322    -0.5413 C.ar    
  12 C12            5.4079     1.7632    -0.1331 C.3     
  13 O13            4.7351     6.4874    -1.1529 O.3     
  14 C14            6.1545     6.6141    -1.0461 C.3     
  15 C15            6.5576     8.0674    -1.3033 C.3     
  16 N16            6.0259     8.9201    -0.2317 N.3     
  17 C17            6.8130     8.7704     0.9996 C.3     
  18 C18            5.9727    10.3258    -0.6549 C.3     
  19 C19           -1.5349     1.6065    -0.6334 C.ar    
  20 C20           -2.5234     1.2665     0.3030 C.ar    
  21 C21           -3.7976     1.7921     0.1783 C.ar    
  22 C22           -4.0947     2.6514    -0.8695 C.ar    
  23 C23           -3.1157     2.9894    -1.7986 C.ar    
  24 C24           -1.8437     2.4780    -1.6822 C.ar    
  25 C25           -3.4482     3.9237    -2.9334 C.3     
  26 C26           -2.5511     5.1606    -2.8551 C.3     
  27 C27           -3.2169     3.2095    -4.2665 C.3     
  28 O28           -5.3456     3.1642    -0.9890 O.3     
  29 O29           -2.2311     0.4253     1.3263 O.3     
  30 H30            2.4266     1.0949     0.6391 H       
  31 H31            2.5882     0.7416    -1.1023 H       
  32 H32            0.4521     3.4772    -1.8555 H       
  33 H33            0.2904     3.8304    -0.1141 H       
  34 H34            2.1895     5.8868    -1.2687 H       
  35 H35            6.1093     4.3289    -0.5875 H       
  36 H36            5.5323     1.6860     0.9471 H       
  37 H37            4.9653     0.8430    -0.5145 H       
  38 H38            6.3800     1.9197    -0.6005 H       
  39 H39            6.4712     6.3209    -0.0451 H       
  40 H40            6.6333     5.9685    -1.7823 H       
  41 H41            7.6447     8.1448    -1.3236 H       
  42 H42            6.1522     8.3928    -2.2614 H       
  43 H43            7.8472     9.0556     0.8066 H       
  44 H44            6.3979     9.4125     1.7764 H       
  45 H45            6.7780     7.7320     1.3292 H       
  46 H46            5.2601    10.4322    -1.4728 H       
  47 H47            5.6580    10.9462     0.1842 H       
  48 H48            6.9605    10.6419    -0.9902 H       
  49 H49           -4.5611     1.5329     0.8968 H       
  50 H50           -1.0854     2.7463    -2.4028 H       
  51 H51           -4.4925     4.2271    -2.8601 H       
  52 H52           -1.5067     4.8573    -2.9284 H       
  53 H53           -2.7916     5.8364    -3.6759 H       
  54 H54           -2.7158     5.6695    -1.9054 H       
  55 H55           -3.8560     2.3283    -4.3223 H       
  56 H56           -3.4574     3.8853    -5.0873 H       
  57 H57           -2.1726     2.9061    -4.3398 H       
  58 H58           -5.4730     4.0027    -0.5245 H       
  59 H59           -1.9105     0.8709     2.1224 H       
@<TRIPOS>BOND
   1    1    2 2
   2    1    4 am
   3    1   19 1
   4    3    4 1
   5    3   11 1
   6    3   30 1
   7    3   31 1
   8    4    5 1
   9    5    6 1
  10    5   32 1
  11    5   33 1
  12    6    7 ar
  13    6   11 ar
  14    7    8 ar
  15    7   34 1
  16    8    9 ar
  17    8   13 1
  18    9   10 ar
  19    9   35 1
  20   10   11 ar
  21   10   12 1
  22   12   36 1
  23   12   37 1
  24   12   38 1
  25   13   14 1
  26   14   15 1
  27   14   39 1
  28   14   40 1
  29   15   16 1
  30   15   41 1
  31   15   42 1
  32   16   17 1
  33   16   18 1
  34   17   43 1
  35   17   44 1
  36   17   45 1
  37   18   46 1
  38   18   47 1
  39   18   48 1
  40   19   20 ar
  41   19   24 ar
  42   20   21 ar
  43   20   29 1
  44   21   22 ar
  45   21   49 1
  46   22   23 ar
  47   22   28 1
  48   23   24 ar
  49   23   25 1
  50   24   50 1
  51   25   26 1
  52   25   27 1
  53   25   51 1
  54   26   52 1
  55   26   53 1
  56   26   54 1
  57   27   55 1
  58   27   56 1
  59   27   57 1
  60   28   58 1
  61   29   59 1

#	End of record

