#	Name: ASD03540193
#	Creating user name:	WinNT
#	Creation time:	15. 06. 2019 20:42

#	Modifying user name:	WinNT
#	Modification time:	15. 06. 2019 20:42

#	Program:	/corina/corina34_cracker 3.40 0067  02.08.2006

@<TRIPOS>MOLECULE
ASD03540193
  65   69    0    0    0
SMALL
NO_CHARGES


@<TRIPOS>ATOM
   1 C1            -0.0187     1.5258     0.0104 C.3     
   2 C2             0.0021    -0.0041     0.0020 C.3     
   3 C3             1.3165     0.7789    -0.0063 C.3     
   4 C4            -0.4420     2.2229    -1.2568 C.2     
   5 O5            -0.7486     1.5748    -2.2293 O.2     
   6 O6            -0.4783     3.5638    -1.3051 O.3     
   7 C7            -0.4176     2.2092     1.2929 C.ar    
   8 C8            -0.4539     3.5895     1.3582 C.ar    
   9 C9            -0.8198     4.2164     2.5347 C.ar    
  10 C10           -1.1499     3.4630     3.6457 C.ar    
  11 C11           -1.1144     2.0827     3.5801 C.ar    
  12 C12           -0.7527     1.4557     2.4024 C.ar    
  13 C13           -1.5478     4.1465     4.9285 C.3     
  14 C14           -3.7969     3.4059     5.4581 C.2     
  15 N15           -5.1302     3.5409     5.4970 N.am    
  16 C16           -5.7536     4.6730     5.0030 C.2     
  17 C17           -4.9771     5.6878     4.4565 C.2     
  18 C18           -3.5102     5.4909     4.4363 C.2     
  19 N19           -2.9980     4.3536     4.9419 N.am    
  20 C20           -5.7347     6.7677     3.9974 C.2     
  21 C21           -7.0597     6.6259     4.1679 C.2     
  22 S22           -7.4097     5.0862     4.9330 S.3     
  23 O23           -2.7786     6.3444     3.9704 O.2     
  24 O24           -3.2946     2.3948     5.9093 O.2     
  25 C25           -5.9437     2.4676     6.0738 C.3     
  26 C26           -8.0665     7.6136     3.7723 C.2     
  27 N27           -9.3736     7.3683     3.9910 N.am    
  28 O28           -7.7226     8.6559     3.2461 O.2     
  29 C29          -10.3804     8.3562     3.5954 C.3     
  30 C30          -11.7530     7.8431     3.9475 C.ar    
  31 C31          -12.2984     8.1243     5.1854 C.ar    
  32 C32          -13.5618     7.6518     5.5089 C.ar    
  33 C33          -14.2747     6.8977     4.5878 C.ar    
  34 C34          -13.7251     6.6194     3.3516 C.ar    
  35 C35          -12.4677     7.0964     3.0294 C.ar    
  36 O36          -14.1002     7.9266     6.7260 O.3     
  37 C37          -15.4052     7.4077     6.9902 C.3     
  38 C38           -0.8955     4.1672    -2.5582 C.3     
  39 H39           -0.2728    -0.5162     0.9241 H       
  40 H40           -0.2904    -0.5063    -0.9201 H       
  41 H41            1.8888     0.7918    -0.9339 H       
  42 H42            1.9064     0.7818     0.9103 H       
  43 H43           -0.1961     4.1782     0.4902 H       
  44 H44           -0.8475     5.2949     2.5859 H       
  45 H45           -1.3719     1.4940     4.4482 H       
  46 H46           -0.7286     0.3773     2.3501 H       
  47 H47           -1.2619     3.5234     5.7759 H       
  48 H48           -1.0425     5.1097     4.9988 H       
  49 H49           -5.2928     7.6427     3.5441 H       
  50 H50           -5.2938     1.6598     6.4100 H       
  51 H51           -6.5091     2.8556     6.9211 H       
  52 H52           -6.6334     2.0890     5.3195 H       
  53 H53           -9.6476     6.5377     4.4104 H       
  54 H54          -10.1967     9.2930     4.1214 H       
  55 H55          -10.3206     8.5254     2.5202 H       
  56 H56          -11.7413     8.7111     5.9007 H       
  57 H57          -15.2584     6.5284     4.8374 H       
  58 H58          -14.2795     6.0322     2.6345 H       
  59 H59          -12.0416     6.8818     2.0605 H       
  60 H60          -16.1098     7.8079     6.2612 H       
  61 H61          -15.3854     6.3203     6.9175 H       
  62 H62          -15.7158     7.6991     7.9936 H       
  63 H63           -0.2134     3.8639    -3.3524 H       
  64 H64           -1.9057     3.8379    -2.8014 H       
  65 H65           -0.8807     5.2528    -2.4614 H       
@<TRIPOS>BOND
   1    1    2 1
   2    1    3 1
   3    1    4 1
   4    1    7 1
   5    2    3 1
   6    2   39 1
   7    2   40 1
   8    3   41 1
   9    3   42 1
  10    4    5 2
  11    4    6 1
  12    6   38 1
  13    7    8 ar
  14    7   12 ar
  15    8    9 ar
  16    8   43 1
  17    9   10 ar
  18    9   44 1
  19   10   11 ar
  20   10   13 1
  21   11   12 ar
  22   11   45 1
  23   12   46 1
  24   13   19 1
  25   13   47 1
  26   13   48 1
  27   14   15 am
  28   14   19 am
  29   14   24 2
  30   15   16 1
  31   15   25 1
  32   16   17 2
  33   16   22 1
  34   17   18 1
  35   17   20 1
  36   18   19 am
  37   18   23 2
  38   20   21 2
  39   20   49 1
  40   21   22 1
  41   21   26 1
  42   25   50 1
  43   25   51 1
  44   25   52 1
  45   26   27 am
  46   26   28 2
  47   27   29 1
  48   27   53 1
  49   29   30 1
  50   29   54 1
  51   29   55 1
  52   30   31 ar
  53   30   35 ar
  54   31   32 ar
  55   31   56 1
  56   32   33 ar
  57   32   36 1
  58   33   34 ar
  59   33   57 1
  60   34   35 ar
  61   34   58 1
  62   35   59 1
  63   36   37 1
  64   37   60 1
  65   37   61 1
  66   37   62 1
  67   38   63 1
  68   38   64 1
  69   38   65 1

#	End of record

