#	Name: ASD01810394
#	Creating user name:	WinNT
#	Creation time:	15. 06. 2019 19:24

#	Modifying user name:	WinNT
#	Modification time:	15. 06. 2019 19:24

#	Program:	/corina/corina34_cracker 3.40 0067  02.08.2006

@<TRIPOS>MOLECULE
ASD01810394
  39   42    0    0    0
SMALL
NO_CHARGES


@<TRIPOS>ATOM
   1 N1            -0.0161     1.3337     0.0094 N.pl3   
   2 C2             0.0021    -0.0041     0.0020 C.2     
   3 C3             1.1836    -0.7223    -0.0127 C.2     
   4 C4             2.4605     0.0087    -0.0209 C.2     
   5 C5             2.3941     1.4860    -0.0128 C.ar    
   6 N6             3.5003     2.2186    -0.0190 N.ar    
   7 C7             3.4529     3.5320    -0.0115 C.ar    
   8 C8             2.2391     4.2073     0.0037 C.ar    
   9 C9             1.0583     3.4909     0.0107 C.ar    
  10 C10            1.1303     2.0957     0.0025 C.ar    
  11 C11            1.1642    -2.1893    -0.0194 C.2     
  12 O12            0.0963    -2.7874    -0.0120 O.co2   
  13 O13            2.2160    -2.8152    -0.0324 O.co2   
  14 C14           -1.3119     2.0171     0.0191 C.3     
  15 C15           -1.7496     2.2437     1.4432 C.ar    
  16 C16           -1.3910     3.4074     2.0984 C.ar    
  17 C17           -1.7907     3.6179     3.4037 C.ar    
  18 C18           -2.5536     2.6599     4.0577 C.ar    
  19 C19           -2.9125     1.4927     3.3970 C.ar    
  20 C20           -2.5138     1.2900     2.0902 C.ar    
  21 N21           -2.9604     2.8705     5.3825 N.pl3   
  22 N22           -2.6712     3.9960     6.1648 N.2     
  23 C23           -3.2201     3.8289     7.3410 C.2     
  24 C24           -3.8761     2.5930     7.3466 C.2     
  25 C25           -3.7064     2.0257     6.1298 C.2     
  26 O26            3.5278    -0.5784    -0.0335 O.2     
  27 H27           -0.9356    -0.5399     0.0081 H       
  28 H28            4.3738     4.0961    -0.0169 H       
  29 H29            2.2188     5.2871     0.0104 H       
  30 H30            0.1039     3.9962     0.0228 H       
  31 H31           -1.2205     2.9766    -0.4899 H       
  32 H32           -2.0508     1.4022    -0.4946 H       
  33 H33           -0.7975     4.1523     1.5892 H       
  34 H34           -1.5097     4.5267     3.9151 H       
  35 H35           -3.5059     0.7457     3.9032 H       
  36 H36           -2.7958     0.3840     1.5745 H       
  37 H37           -3.1741     4.5248     8.1656 H       
  38 H38           -4.4247     2.1687     8.1745 H       
  39 H39           -4.0950     1.0691     5.8132 H       
@<TRIPOS>BOND
   1    1    2 1
   2    1   10 1
   3    1   14 1
   4    2    3 2
   5    2   27 1
   6    3    4 1
   7    3   11 1
   8    4    5 1
   9    4   26 2
  10    5    6 ar
  11    5   10 ar
  12    6    7 ar
  13    7    8 ar
  14    7   28 1
  15    8    9 ar
  16    8   29 1
  17    9   10 ar
  18    9   30 1
  19   11   12 ar
  20   11   13 ar
  21   14   15 1
  22   14   31 1
  23   14   32 1
  24   15   16 ar
  25   15   20 ar
  26   16   17 ar
  27   16   33 1
  28   17   18 ar
  29   17   34 1
  30   18   19 ar
  31   18   21 1
  32   19   20 ar
  33   19   35 1
  34   20   36 1
  35   21   22 1
  36   21   25 1
  37   22   23 2
  38   23   24 1
  39   23   37 1
  40   24   25 2
  41   24   38 1
  42   25   39 1

#	End of record

