#	Name: ASD01883065
#	Creating user name:	WinNT
#	Creation time:	15. 06. 2019 19:45

#	Modifying user name:	WinNT
#	Modification time:	15. 06. 2019 19:45

#	Program:	/corina/corina34_cracker 3.40 0067  02.08.2006

@<TRIPOS>MOLECULE
ASD01883065
  36   38    0    0    0
SMALL
NO_CHARGES


@<TRIPOS>ATOM
   1 N1            -0.0162     1.3415     0.0094 N.am    
   2 C2             0.0021    -0.0041     0.0020 C.2     
   3 C3            -1.2144    -0.7274     0.0102 C.2     
   4 C4            -2.4281    -0.0089     0.0261 C.2     
   5 C5            -2.3786     1.4027     0.0332 C.2     
   6 C6            -1.1855     2.0348     0.0299 C.2     
   7 O7             1.0660    -0.5997    -0.0122 O.2     
   8 C8            -1.2131    -2.1594     0.0021 C.1     
   9 N9            -1.2121    -3.2954    -0.0044 N.1     
  10 C10            1.2518     2.0753     0.0013 C.3     
  11 C11            1.6730     2.3345    -1.4223 C.ar    
  12 C12            1.2666     3.4896    -2.0639 C.ar    
  13 C13            1.6529     3.7273    -3.3697 C.ar    
  14 C14            2.4460     2.8103    -4.0337 C.ar    
  15 C15            2.8531     1.6557    -3.3918 C.ar    
  16 C16            2.4704     1.4200    -2.0846 C.ar    
  17 C17           -3.7164    -0.7137     0.0347 C.2     
  18 C18            2.8664     3.0690    -5.4576 C.3     
  19 C19           -4.6275    -0.6873     1.0523 C.2     
  20 C20           -5.7512    -1.4391     0.7958 C.2     
  21 C21           -5.7604    -2.0590    -0.3892 C.2     
  22 S22           -4.3366    -1.7208    -1.2664 S.3     
  23 H23           -3.2940     1.9757     0.0451 H       
  24 H24           -1.1596     3.1145     0.0354 H       
  25 H25            1.1254     3.0248     0.5214 H       
  26 H26            2.0169     1.4842     0.5046 H       
  27 H27            0.6470     4.2060    -1.5451 H       
  28 H28            1.3348     4.6294    -3.8712 H       
  29 H29            3.4725     0.9391    -3.9107 H       
  30 H30            2.7885     0.5179    -1.5831 H       
  31 H31            3.8094     3.6157    -5.4644 H       
  32 H32            2.9931     2.1193    -5.9773 H       
  33 H33            2.1006     3.6593    -5.9609 H       
  34 H34           -4.4803    -0.1322     1.9670 H       
  35 H35           -6.5658    -1.5226     1.4999 H       
  36 H36           -6.5641    -2.6864    -0.7454 H       
@<TRIPOS>BOND
   1    1    2 am
   2    1   10 1
   3    1    6 1
   4    2    3 1
   5    2    7 2
   6    3    4 2
   7    3    8 1
   8    4    5 1
   9    4   17 1
  10    5    6 2
  11    5   23 1
  12    6   24 1
  13    8    9 3
  14   10   11 1
  15   10   25 1
  16   10   26 1
  17   11   12 ar
  18   11   16 ar
  19   12   13 ar
  20   12   27 1
  21   13   14 ar
  22   13   28 1
  23   14   15 ar
  24   14   18 1
  25   15   16 ar
  26   15   29 1
  27   16   30 1
  28   17   19 2
  29   17   22 1
  30   18   31 1
  31   18   32 1
  32   18   33 1
  33   19   20 1
  34   19   34 1
  35   20   21 2
  36   20   35 1
  37   21   22 1
  38   21   36 1

#	End of record

