#	Name: ASD01148878
#	Creating user name:	WinNT
#	Creation time:	15. 06. 2019 19:03

#	Modifying user name:	WinNT
#	Modification time:	15. 06. 2019 19:03

#	Program:	/corina/corina34_cracker 3.40 0067  02.08.2006

@<TRIPOS>MOLECULE
ASD01148878
  38   40    0    0    0
SMALL
NO_CHARGES


@<TRIPOS>ATOM
   1 C1            -0.1624     1.0849     0.2060 C.ar    
   2 C2            -0.0439    -0.2830     0.3699 C.ar    
   3 C3             1.1985    -0.8827     0.3045 C.ar    
   4 C4             2.3292    -0.1107     0.0739 C.ar    
   5 C5             2.2070     1.2626    -0.0903 C.ar    
   6 C6             0.9619     1.8565    -0.0238 C.ar    
   7 S7            -1.7500     1.8454     0.2829 S.o2    
   8 O8            -1.6460     3.0651    -0.4387 O.2     
   9 O9            -2.6956     0.8331    -0.0340 O.2     
  10 N10           -2.0195     2.2587     1.8637 N.am    
  11 N11            3.5912    -0.7161     0.0075 N.pl3   
  12 C12            4.0201    -1.5593    -0.9769 C.2     
  13 C13            5.2862    -1.9363    -0.6958 C.2     
  14 C14            5.6633    -1.3094     0.5034 C.2     
  15 C15            4.6065    -0.5563     0.9187 C.2     
  16 C16            4.5594     0.2810     2.1362 C.ar    
  17 C17            3.3308     0.6525     2.6843 C.ar    
  18 C18            3.2939     1.4336     3.8209 C.ar    
  19 C19            4.4714     1.8490     4.4170 C.ar    
  20 C20            5.6926     1.4841     3.8788 C.ar    
  21 C21            5.7436     0.6985     2.7458 C.ar    
  22 C22            3.2162    -1.9961    -2.1744 C.3     
  23 H23           -0.9238    -0.8830     0.5497 H       
  24 H24            1.2905    -1.9511     0.4330 H       
  25 H25            3.0848     1.8658    -0.2694 H       
  26 H26            0.8661     2.9246    -0.1518 H       
  27 H27           -1.3484     2.0652     2.5368 H       
  28 H28           -2.8485     2.6944     2.1165 H       
  29 H29            5.8988    -2.6010    -1.2869 H       
  30 H30            6.6168    -1.4034     1.0018 H       
  31 H31            2.4109     0.3296     2.2195 H       
  32 H32            2.3439     1.7219     4.2460 H       
  33 H33            4.4370     2.4609     5.3062 H       
  34 H34            6.6081     1.8116     4.3489 H       
  35 H35            6.6975     0.4107     2.3292 H       
  36 H36            3.3792    -1.2982    -2.9956 H       
  37 H37            3.5305    -2.9946    -2.4783 H       
  38 H38            2.1576    -2.0116    -1.9153 H       
@<TRIPOS>BOND
   1    1    2 ar
   2    1    6 ar
   3    1    7 1
   4    2    3 ar
   5    2   23 1
   6    3    4 ar
   7    3   24 1
   8    4    5 ar
   9    4   11 1
  10    5    6 ar
  11    5   25 1
  12    6   26 1
  13    7    8 2
  14    7    9 2
  15    7   10 am
  16   10   27 1
  17   10   28 1
  18   11   12 1
  19   11   15 1
  20   12   13 2
  21   12   22 1
  22   13   14 1
  23   13   29 1
  24   14   15 2
  25   14   30 1
  26   15   16 1
  27   16   17 ar
  28   16   21 ar
  29   17   18 ar
  30   17   31 1
  31   18   19 ar
  32   18   32 1
  33   19   20 ar
  34   19   33 1
  35   20   21 ar
  36   20   34 1
  37   21   35 1
  38   22   36 1
  39   22   37 1
  40   22   38 1

#	End of record

