#	Name: ASD01948075
#	Creating user name:	WinNT
#	Creation time:	15. 06. 2019 20:13

#	Modifying user name:	WinNT
#	Modification time:	15. 06. 2019 20:13

#	Program:	/corina/corina34_cracker 3.40 0067  02.08.2006

@<TRIPOS>MOLECULE
ASD01948075
  19   19    0    0    0
SMALL
NO_CHARGES


@<TRIPOS>ATOM
   1 C1            -0.0225     1.8097     0.0120 C.3     
   2 S2             0.0021    -0.0041     0.0020 S.o2    
   3 O3             0.4873    -0.4893    -1.2423 O.2     
   4 O4             0.5110    -0.5026     1.2315 O.2     
   5 Cl5           -1.9469    -0.5347     0.0178 Cl      
   6 O6             2.6220     3.7428     0.9263 O.3     
   7 C7             1.5283     3.8686     0.0082 C.3     
   8 C8             1.4129     2.3393     0.0011 C.3     
   9 C9             2.0366     2.5195     1.3906 C.3     
  10 C10            2.3152     1.6380    -1.0162 C.3     
  11 H11           -0.5497     2.1708    -0.8711 H       
  12 H12           -0.5327     2.1613     0.9088 H       
  13 H13            0.6585     4.3663     0.4370 H       
  14 H14            1.8187     4.2852    -0.9563 H       
  15 H15            2.7722     1.7539     1.6373 H       
  16 H16            1.2994     2.6648     2.1803 H       
  17 H17            1.9091     1.7763    -2.0182 H       
  18 H18            3.3171     2.0646    -0.9681 H       
  19 H19            2.3622     0.5734    -0.7870 H       
@<TRIPOS>BOND
   1    1    2 1
   2    1    8 1
   3    1   11 1
   4    1   12 1
   5    2    3 2
   6    2    4 2
   7    2    5 1
   8    6    7 1
   9    6    9 1
  10    7    8 1
  11    7   13 1
  12    7   14 1
  13    8    9 1
  14    8   10 1
  15    9   15 1
  16    9   16 1
  17   10   17 1
  18   10   18 1
  19   10   19 1

#	End of record

