#	Name: ASD02408069
#	Creating user name:	WinNT
#	Creation time:	15. 06. 2019 20:21

#	Modifying user name:	WinNT
#	Modification time:	15. 06. 2019 20:21

#	Program:	/corina/corina34_cracker 3.40 0067  02.08.2006

@<TRIPOS>MOLECULE
ASD02408069
  44   46    0    0    0
SMALL
NO_CHARGES


@<TRIPOS>ATOM
   1 C1             0.5438     0.6197    -0.0811 C.ar    
   2 C2             0.8133    -0.7159    -0.3127 C.ar    
   3 C3             1.6681     1.6231    -0.0625 C.3     
   4 C4             1.8793     2.1666    -1.4521 C.2     
   5 N5             2.8453     3.0839    -1.6526 N.am    
   6 N6             1.1237     1.7290    -2.4224 N.2     
   7 C7             1.2664     2.1757    -3.6768 C.2     
   8 C8             2.2516     3.1372    -3.9559 C.2     
   9 C9             3.0623     3.5917    -2.8841 C.2     
  10 N10            0.4585     1.6984    -4.6796 N.pl3   
  11 C11            1.0076     1.4165    -6.0129 C.3     
  12 O12            3.9321     4.4251    -3.0703 O.2     
  13 C13           -0.2181    -1.6364    -0.3298 C.ar    
  14 C14           -1.5187    -1.2210    -0.1146 C.ar    
  15 C15           -1.7882     0.1149     0.1180 C.ar    
  16 C16           -0.7579     1.0362     0.1280 C.ar    
  17 C17            0.0756    -3.0926    -0.5833 C.3     
  18 C18            0.6514    -0.0226    -6.3986 C.3     
  19 C19           -0.8627    -0.2162    -6.2886 C.3     
  20 C20           -1.3051     0.0200    -4.8427 C.3     
  21 C21           -0.9700     1.4543    -4.4377 C.3     
  22 C22           -1.5452     0.7424    -7.1730 C.1     
  23 N23           -2.0719     1.4821    -7.8555 N.1     
  24 C24            2.4357     3.6400    -5.2840 C.1     
  25 N25            2.5817     4.0388    -6.3376 N.1     
  26 H26            1.8296    -1.0405    -0.4808 H       
  27 H27            1.4145     2.4404     0.6127 H       
  28 H28            2.5820     1.1384     0.2809 H       
  29 H29            3.3887     3.3818    -0.9064 H       
  30 H30            0.5771     2.1065    -6.7387 H       
  31 H31            2.0912     1.5322    -5.9937 H       
  32 H32           -2.3245    -1.9400    -0.1286 H       
  33 H33           -2.8045     0.4395     0.2857 H       
  34 H34           -0.9684     2.0797     0.3097 H       
  35 H35            0.2653    -3.5955     0.3649 H       
  36 H36           -0.7798    -3.5555    -1.0754 H       
  37 H37            0.9538    -3.1801    -1.2230 H       
  38 H38            0.9691    -0.2138    -7.4236 H       
  39 H39            1.1566    -0.7153    -5.7255 H       
  40 H40           -1.1215    -1.2323    -6.5861 H       
  41 H41           -2.3801    -0.1409    -4.7602 H       
  42 H42           -0.7815    -0.6731    -4.1842 H       
  43 H43           -1.1924     1.5969    -3.3802 H       
  44 H44           -1.5602     2.1498    -5.0344 H       
@<TRIPOS>BOND
   1    1    2 ar
   2    1    3 1
   3    1   16 ar
   4    2   13 ar
   5    2   26 1
   6    3    4 1
   7    3   27 1
   8    3   28 1
   9    4    5 1
  10    4    6 2
  11    5    9 am
  12    5   29 1
  13    6    7 1
  14    7    8 2
  15    7   10 1
  16    8    9 1
  17    8   24 1
  18    9   12 2
  19   10   11 1
  20   10   21 1
  21   11   18 1
  22   11   30 1
  23   11   31 1
  24   13   14 ar
  25   13   17 1
  26   14   15 ar
  27   14   32 1
  28   15   16 ar
  29   15   33 1
  30   16   34 1
  31   17   35 1
  32   17   36 1
  33   17   37 1
  34   18   19 1
  35   18   38 1
  36   18   39 1
  37   19   20 1
  38   19   22 1
  39   19   40 1
  40   20   21 1
  41   20   41 1
  42   20   42 1
  43   21   43 1
  44   21   44 1
  45   22   23 3
  46   24   25 3

#	End of record

