#	Name: ASD05473019
#	Creating user name:	WinNT
#	Creation time:	15. 06. 2019 21:00

#	Modifying user name:	WinNT
#	Modification time:	15. 06. 2019 21:00

#	Program:	/corina/corina34_cracker 3.40 0067  02.08.2006

@<TRIPOS>MOLECULE
ASD05473019
  40   42    0    0    0
SMALL
NO_CHARGES


@<TRIPOS>ATOM
   1 C1            -0.8731    -0.2145    -1.0692 C.2     
   2 C2            -0.0741     0.1304     0.1611 C.3     
   3 C3             1.2848    -0.5701     0.0996 C.3     
   4 C4             2.1534    -0.1015     1.2687 C.3     
   5 O5            -0.3670    -0.8585    -1.9574 O.2     
   6 O6            -2.1489     0.1892    -1.1758 O.3     
   7 C7             2.4657     1.3639     1.1068 C.2     
   8 N8             2.1992     2.3242     2.0326 N.pl3   
   9 C9             2.6325     3.5280     1.5122 C.ar    
  10 C10            3.1631     3.2334     0.2449 C.ar    
  11 N11            3.0343     1.8939     0.0635 N.2     
  12 C12            3.6882     4.2649    -0.5379 C.ar    
  13 C13            3.6805     5.5569    -0.0607 C.ar    
  14 C14            3.1553     5.8421     1.1926 C.ar    
  15 C15            2.6328     4.8358     1.9766 C.ar    
  16 C16            1.0856    -2.0613     0.1878 C.ar    
  17 C17            0.4755    -2.6124     1.2994 C.ar    
  18 C18            0.2931    -3.9798     1.3811 C.ar    
  19 C19            0.7207    -4.7974     0.3498 C.ar    
  20 C20            1.3306    -4.2453    -0.7623 C.ar    
  21 C21            1.5079    -2.8769    -0.8451 C.ar    
  22 Cl22           4.3329     6.8383    -1.0334 Cl      
  23 Cl23           0.4924    -6.5153     0.4519 Cl      
  24 C24            1.7971    -5.1351    -1.8856 C.3     
  25 F25            2.3772    -4.3528    -2.8899 F       
  26 F26            2.7420    -6.0445    -1.3985 F       
  27 F27            0.7050    -5.8339    -2.4112 F       
  28 H28            0.0750     1.2092     0.2069 H       
  29 H29           -0.6133    -0.1999     1.0490 H       
  30 H30            1.7780    -0.3244    -0.8408 H       
  31 H31            1.6176    -0.2576     2.2050 H       
  32 H32            3.0824    -0.6716     1.2824 H       
  33 H33           -2.6208    -0.0561    -1.9834 H       
  34 H34            1.7820     2.1887     2.8978 H       
  35 H35            4.0988     4.0498    -1.5133 H       
  36 H36            3.1556     6.8594     1.5554 H       
  37 H37            2.2253     5.0644     2.9503 H       
  38 H38            0.1418    -1.9742     2.1042 H       
  39 H39           -0.1829    -4.4103     2.2497 H       
  40 H40            1.9801    -2.4453    -1.7153 H       
@<TRIPOS>BOND
   1    1    2 1
   2    1    5 2
   3    1    6 1
   4    2    3 1
   5    2   28 1
   6    2   29 1
   7    3    4 1
   8    3   16 1
   9    3   30 1
  10    4    7 1
  11    4   31 1
  12    4   32 1
  13    6   33 1
  14    7    8 1
  15    7   11 2
  16    8    9 1
  17    8   34 1
  18    9   10 ar
  19    9   15 ar
  20   10   11 1
  21   10   12 ar
  22   12   13 ar
  23   12   35 1
  24   13   14 ar
  25   13   22 1
  26   14   15 ar
  27   14   36 1
  28   15   37 1
  29   16   17 ar
  30   16   21 ar
  31   17   18 ar
  32   17   38 1
  33   18   19 ar
  34   18   39 1
  35   19   20 ar
  36   19   23 1
  37   20   21 ar
  38   20   24 1
  39   21   40 1
  40   24   25 1
  41   24   26 1
  42   24   27 1

#	End of record

