#	Name: ASD05740193
#	Creating user name:	WinNT
#	Creation time:	15. 06. 2019 21:03

#	Modifying user name:	WinNT
#	Modification time:	15. 06. 2019 21:03

#	Program:	/corina/corina34_cracker 3.40 0067  02.08.2006

@<TRIPOS>MOLECULE
ASD05740193
  61   65    0    0    0
SMALL
NO_CHARGES


@<TRIPOS>ATOM
   1 C1             0.8519    -0.3599    -0.0906 C.3     
   2 N2            -0.0156     0.0123     1.0356 N.3     
   3 C3            -1.3153    -0.4718     0.8490 C.ar    
   4 C4            -2.2919    -0.2260     1.8053 C.ar    
   5 C5            -3.5741    -0.7038     1.6211 C.ar    
   6 C6            -3.8871    -1.4305     0.4799 C.ar    
   7 C7            -2.9105    -1.6767    -0.4761 C.ar    
   8 C8            -1.6299    -1.1933    -0.2952 C.ar    
   9 N9            -5.1879    -1.9156     0.2933 N.pl3   
  10 C10           -6.2711    -1.1628     0.7029 C.ar    
  11 N11           -6.0581     0.0639     1.1665 N.ar    
  12 N12           -7.4835    -1.6895     0.6136 N.ar    
  13 C13           -8.5467    -0.9950     0.9979 C.ar    
  14 C14           -8.3581     0.3110     1.5015 C.ar    
  15 C15           -7.0586     0.8256     1.5712 C.ar    
  16 N16           -9.8137    -1.5124     0.9172 N.am    
  17 C17          -10.8804    -0.7941     1.3109 C.2     
  18 C18          -10.7487     0.5135     1.8203 C.2     
  19 C19           -9.5204     1.0847     1.9273 C.2     
  20 C20          -10.0085    -2.8669     0.3943 C.3     
  21 O21          -11.9916    -1.2873     1.2244 O.2     
  22 C22            0.5455    -0.4623     2.3082 C.3     
  23 C23            1.9327     0.1516     2.5116 C.3     
  24 N24            2.8002    -0.2207     1.3853 N.3     
  25 C25            2.2390     0.2540     0.1127 C.3     
  26 C26          -10.7011    -2.7947    -0.9422 C.ar    
  27 C27          -10.9149    -1.8152    -3.1165 C.ar    
  28 C28          -12.3967    -3.5714    -2.4437 C.ar    
  29 C29          -11.7614    -3.6377    -1.2177 C.ar    
  30 C30            4.1644     0.2876     1.5812 C.3     
  31 C31          -10.2796    -1.8815    -1.8906 C.ar    
  32 C32          -11.9713    -2.6624    -3.3943 C.ar    
  33 C33           -8.6495    -3.5499     0.2282 C.3     
  34 H34            0.9382    -1.4454    -0.1398 H       
  35 H35            0.4216     0.0134    -1.0199 H       
  36 H36           -2.0483     0.3386     2.6932 H       
  37 H37           -4.3336    -0.5126     2.3648 H       
  38 H38           -3.1538    -2.2425    -1.3633 H       
  39 H39           -0.8703    -1.3848    -1.0387 H       
  40 H40           -5.3280    -2.7802    -0.1235 H       
  41 H41           -6.8776     1.8202     1.9511 H       
  42 H42          -11.6265     1.0629     2.1268 H       
  43 H43           -9.4071     2.0857     2.3165 H       
  44 H44          -10.6207    -3.4405     1.0902 H       
  45 H45           -0.1081    -0.1636     3.1278 H       
  46 H46            0.6284    -1.5490     2.2863 H       
  47 H47            1.8463     1.2371     2.5607 H       
  48 H48            2.3629    -0.2217     3.4409 H       
  49 H49            2.8926    -0.0447    -0.7068 H       
  50 H50            2.1561     1.3406     0.1346 H       
  51 H51          -10.5826    -1.1050    -3.8592 H       
  52 H52          -13.2251    -4.2300    -2.6589 H       
  53 H53          -12.0933    -4.3483    -0.4752 H       
  54 H54            4.5807    -0.1326     2.4968 H       
  55 H55            4.7853    -0.0020     0.7334 H       
  56 H56            4.1396     1.3745     1.6588 H       
  57 H57           -9.4543    -1.2196    -1.6736 H       
  58 H58          -12.4676    -2.6106    -4.3521 H       
  59 H59           -8.0915    -3.4806     1.1619 H       
  60 H60           -8.7988    -4.5985    -0.0289 H       
  61 H61           -8.0900    -3.0570    -0.5669 H       
@<TRIPOS>BOND
   1    1    2 1
   2    1   25 1
   3    1   34 1
   4    1   35 1
   5    2    3 1
   6    2   22 1
   7    3    4 ar
   8    3    8 ar
   9    4    5 ar
  10    4   36 1
  11    5    6 ar
  12    5   37 1
  13    6    7 ar
  14    6    9 1
  15    7    8 ar
  16    7   38 1
  17    8   39 1
  18    9   10 1
  19    9   40 1
  20   10   11 ar
  21   10   12 ar
  22   11   15 ar
  23   12   13 ar
  24   13   14 ar
  25   13   16 1
  26   14   15 ar
  27   14   19 1
  28   15   41 1
  29   16   17 am
  30   16   20 1
  31   17   18 1
  32   17   21 2
  33   18   19 2
  34   18   42 1
  35   19   43 1
  36   20   33 1
  37   20   26 1
  38   20   44 1
  39   22   23 1
  40   22   45 1
  41   22   46 1
  42   23   24 1
  43   23   47 1
  44   23   48 1
  45   24   25 1
  46   24   30 1
  47   25   49 1
  48   25   50 1
  49   26   29 ar
  50   26   31 ar
  51   27   32 ar
  52   27   31 ar
  53   27   51 1
  54   28   29 ar
  55   28   32 ar
  56   28   52 1
  57   29   53 1
  58   30   54 1
  59   30   55 1
  60   30   56 1
  61   31   57 1
  62   32   58 1
  63   33   59 1
  64   33   60 1
  65   33   61 1

#	End of record

