#	Name: ASD03730846
#	Creating user name:	WinNT
#	Creation time:	15. 06. 2019 20:44

#	Modifying user name:	WinNT
#	Modification time:	15. 06. 2019 20:44

#	Program:	/corina/corina34_cracker 3.40 0067  02.08.2006

@<TRIPOS>MOLECULE
ASD03730846
  78   85    0    0    0
SMALL
NO_CHARGES


@<TRIPOS>ATOM
   1 C1             0.7964     2.3709    -0.7674 C.2     
   2 C2             1.3036     0.9910    -0.6108 C.ar    
   3 C3             2.6508     0.7087    -0.8431 C.ar    
   4 C4             3.1177    -0.5807    -0.6947 C.ar    
   5 C5             2.2537    -1.5934    -0.3169 C.ar    
   6 C6             0.9175    -1.3205    -0.0851 C.ar    
   7 C7             0.4388    -0.0339    -0.2243 C.ar    
   8 O8             1.5660     3.2757    -1.0254 O.2     
   9 N9            -0.5201     2.6246    -0.6297 N.am    
  10 C10            3.5929     1.8102    -1.2557 C.3     
  11 O11            6.0285    -4.7357    -2.9615 O.3     
  12 C12            7.0789    -5.6588    -3.3045 C.3     
  13 O13            7.9381    -4.8934    -4.1700 O.3     
  14 C14            7.7641    -3.5907    -3.7992 C.ar    
  15 C15            6.5892    -3.4942    -3.0570 C.ar    
  16 C16            8.5262    -2.4612    -4.0379 C.ar    
  17 C17            8.1268    -1.2235    -3.5426 C.ar    
  18 C18            6.9470    -1.1383    -2.8097 C.ar    
  19 C19            6.1881    -2.2637    -2.5647 C.ar    
  20 O20            8.7324    -0.0059    -3.6474 O.3     
  21 C21            6.7738     0.3113    -2.4428 C.3     
  22 C22            7.7713     1.0288    -3.3624 C.3     
  23 N23            4.9301     1.2529    -1.4740 N.am    
  24 C24            5.3671     0.7888    -2.6617 C.2     
  25 C25            7.0613     0.5718    -0.9939 C.ar    
  26 C26            8.1589     0.3626    -0.1891 C.ar    
  27 C27            8.1169     0.7200     1.1468 C.ar    
  28 C28            6.9699     1.2869     1.6719 C.ar    
  29 C29            5.8675     1.4976     0.8701 C.ar    
  30 C30            5.9010     1.1413    -0.4759 C.ar    
  31 O31            4.7460     0.7624    -3.7032 O.2     
  32 C32           -1.0227     3.9919    -0.7849 C.3     
  33 C33           -2.5389     4.0042    -0.5805 C.3     
  34 C34           -3.0639     5.4322    -0.7426 C.3     
  35 C35           -2.8494     5.8880    -2.1629 C.ar    
  36 C36           -3.3109     5.1170    -3.2134 C.ar    
  37 C37           -3.1141     5.5351    -4.5162 C.ar    
  38 C38           -2.4562     6.7244    -4.7685 C.ar    
  39 C39           -1.9955     7.4959    -3.7180 C.ar    
  40 C40           -2.1961     7.0799    -2.4151 C.ar    
  41 C41           -4.5358     5.4658    -0.4210 C.ar    
  42 C42           -5.0200     6.3685     0.5072 C.ar    
  43 C43           -6.3702     6.3993     0.8022 C.ar    
  44 C44           -7.2362     5.5278     0.1685 C.ar    
  45 C45           -6.7520     4.6258    -0.7604 C.ar    
  46 C46           -5.4025     4.5979    -1.0585 C.ar    
  47 H47            4.1598    -0.8004    -0.8742 H       
  48 H48            2.6242    -2.6015    -0.2028 H       
  49 H49            0.2484    -2.1154     0.2096 H       
  50 H50           -0.6037     0.1787    -0.0391 H       
  51 H51           -1.1348     1.9019    -0.4278 H       
  52 H52            3.2351     2.2681    -2.1779 H       
  53 H53            3.6374     2.5638    -0.4694 H       
  54 H54            7.6180    -5.9745    -2.4114 H       
  55 H55            6.6731    -6.5214    -3.8331 H       
  56 H56            9.4372    -2.5404    -4.6126 H       
  57 H57            5.2786    -2.1849    -1.9877 H       
  58 H58            8.2435     1.8638    -2.8448 H       
  59 H59            7.2822     1.3652    -4.2765 H       
  60 H60            9.0535    -0.0804    -0.6013 H       
  61 H61            8.9780     0.5569     1.7780 H       
  62 H62            6.9371     1.5658     2.7147 H       
  63 H63            4.9753     1.9403     1.2876 H       
  64 H64           -0.5511     4.6386    -0.0450 H       
  65 H65           -0.7881     4.3538    -1.7859 H       
  66 H66           -3.0106     3.3575    -1.3204 H       
  67 H67           -2.7735     3.6423     0.4206 H       
  68 H68           -2.5283     6.0954    -0.0633 H       
  69 H69           -3.8248     4.1879    -3.0162 H       
  70 H70           -3.4740     4.9324    -5.3369 H       
  71 H71           -2.3018     7.0507    -5.7864 H       
  72 H72           -1.4812     8.4249    -3.9151 H       
  73 H73           -1.8395     7.6844    -1.5942 H       
  74 H74           -4.3434     7.0493     1.0022 H       
  75 H75           -6.7484     7.1040     1.5279 H       
  76 H76           -8.2909     5.5514     0.3995 H       
  77 H77           -7.4286     3.9447    -1.2552 H       
  78 H78           -5.0248     3.8957    -1.7870 H       
@<TRIPOS>BOND
   1    1    2 1
   2    1    8 2
   3    1    9 am
   4    2    3 ar
   5    2    7 ar
   6    3    4 ar
   7    3   10 1
   8    4    5 ar
   9    4   47 1
  10    5    6 ar
  11    5   48 1
  12    6    7 ar
  13    6   49 1
  14    7   50 1
  15    9   32 1
  16    9   51 1
  17   10   23 1
  18   10   52 1
  19   10   53 1
  20   11   12 1
  21   11   15 1
  22   12   13 1
  23   12   54 1
  24   12   55 1
  25   13   14 1
  26   14   15 ar
  27   14   16 ar
  28   15   19 ar
  29   16   17 ar
  30   16   56 1
  31   17   18 ar
  32   17   20 1
  33   18   19 ar
  34   18   21 1
  35   19   57 1
  36   20   22 1
  37   21   22 1
  38   21   24 1
  39   21   25 1
  40   22   58 1
  41   22   59 1
  42   23   24 am
  43   23   30 1
  44   24   31 2
  45   25   26 ar
  46   25   30 ar
  47   26   27 ar
  48   26   60 1
  49   27   28 ar
  50   27   61 1
  51   28   29 ar
  52   28   62 1
  53   29   30 ar
  54   29   63 1
  55   32   33 1
  56   32   64 1
  57   32   65 1
  58   33   34 1
  59   33   66 1
  60   33   67 1
  61   34   35 1
  62   34   41 1
  63   34   68 1
  64   35   36 ar
  65   35   40 ar
  66   36   37 ar
  67   36   69 1
  68   37   38 ar
  69   37   70 1
  70   38   39 ar
  71   38   71 1
  72   39   40 ar
  73   39   72 1
  74   40   73 1
  75   41   42 ar
  76   41   46 ar
  77   42   43 ar
  78   42   74 1
  79   43   44 ar
  80   43   75 1
  81   44   45 ar
  82   44   76 1
  83   45   46 ar
  84   45   77 1
  85   46   78 1

#	End of record

