#	Name: ASD00170107
#	Creating user name:	WinNT
#	Creation time:	15. 06. 2019 18:31

#	Modifying user name:	WinNT
#	Modification time:	15. 06. 2019 18:31

#	Program:	/corina/corina34_cracker 3.40 0067  02.08.2006

@<TRIPOS>MOLECULE
ASD00170107
  39   42    0    0    0
SMALL
NO_CHARGES


@<TRIPOS>ATOM
   1 C1            -0.0003     1.3309    -0.1098 C.2     
   2 C2             0.0143    -0.0070    -0.1405 C.2     
   3 C3            -1.3112    -0.5883     0.0110 C.2     
   4 C4            -2.2931     0.3611     0.1532 C.2     
   5 S5            -1.6334     1.9313     0.1132 S.3     
   6 N6            -3.6345     0.0805     0.3133 N.pl3   
   7 Br7            1.5327     2.4255    -0.2760 Br      
   8 C8            -1.5617    -1.9841     0.0114 C.2     
   9 O9            -1.5707    -2.6009     1.0615 O.2     
  10 C10            1.2474    -0.8100    -0.3107 C.ar    
  11 C11           -1.8123    -2.6910    -1.2639 C.ar    
  12 C12           -1.9437    -4.0804    -1.2810 C.ar    
  13 C13           -2.1778    -4.7334    -2.4734 C.ar    
  14 C14           -2.2818    -4.0141    -3.6508 C.ar    
  15 C15           -2.1525    -2.6366    -3.6407 C.ar    
  16 C16           -1.9240    -1.9709    -2.4542 C.ar    
  17 C17            1.6844    -1.6450     0.7313 C.ar    
  18 C18            2.8115    -2.3909     0.6000 C.ar    
  19 C19            3.5578    -2.3338    -0.5907 C.ar    
  20 C20            3.1265    -1.4946    -1.6494 C.ar    
  21 C21            1.9563    -0.7359    -1.4966 C.ar    
  22 C22            4.7276    -3.0955    -0.7505 C.ar    
  23 C23            5.4290    -3.0188    -1.9147 C.ar    
  24 C24            5.0053    -2.1942    -2.9553 C.ar    
  25 C25            3.8775    -1.4417    -2.8374 C.ar    
  26 H26           -3.9486    -0.8354     0.2560 H       
  27 H27           -4.2634     0.7992     0.4831 H       
  28 H28           -1.8621    -4.6430    -0.3628 H       
  29 H29           -2.2797    -5.8085    -2.4880 H       
  30 H30           -2.4644    -4.5302    -4.5818 H       
  31 H31           -2.2343    -2.0810    -4.5632 H       
  32 H32           -1.8236    -0.8956    -2.4476 H       
  33 H33            1.1168    -1.6939     1.6488 H       
  34 H34            3.1349    -3.0278     1.4100 H       
  35 H35            1.6164    -0.0927    -2.2948 H       
  36 H36            5.0690    -3.7389     0.0469 H       
  37 H37            6.3278    -3.6056    -2.0335 H       
  38 H38            5.5804    -2.1515    -3.8684 H       
  39 H39            3.5607    -0.8073    -3.6521 H       
@<TRIPOS>BOND
   1    1    2 2
   2    1    7 1
   3    1    5 1
   4    2    3 1
   5    2   10 1
   6    3    4 2
   7    3    8 1
   8    4    5 1
   9    4    6 1
  10    6   26 1
  11    6   27 1
  12    8    9 2
  13    8   11 1
  14   10   17 ar
  15   10   21 ar
  16   11   12 ar
  17   11   16 ar
  18   12   13 ar
  19   12   28 1
  20   13   14 ar
  21   13   29 1
  22   14   15 ar
  23   14   30 1
  24   15   16 ar
  25   15   31 1
  26   16   32 1
  27   17   18 ar
  28   17   33 1
  29   18   19 ar
  30   18   34 1
  31   19   20 ar
  32   19   22 ar
  33   20   21 ar
  34   20   25 ar
  35   21   35 1
  36   22   23 ar
  37   22   36 1
  38   23   24 ar
  39   23   37 1
  40   24   25 ar
  41   24   38 1
  42   25   39 1

#	End of record

