#	Name: ASD04880460
#	Creating user name:	WinNT
#	Creation time:	15. 06. 2019 20:53

#	Modifying user name:	WinNT
#	Modification time:	15. 06. 2019 20:53

#	Program:	/corina/corina34_cracker 3.40 0067  02.08.2006

@<TRIPOS>MOLECULE
ASD04880460
  51   53    0    0    0
SMALL
NO_CHARGES


@<TRIPOS>ATOM
   1 C1            -0.4727     2.5459     1.9255 C.ar    
   2 C2            -0.2063     1.1900     1.8078 C.ar    
   3 C3            -1.2153     0.3122     1.4703 C.ar    
   4 C4            -2.5092     0.7885     1.2466 C.ar    
   5 C5            -2.7774     2.1550     1.3658 C.ar    
   6 C6            -1.7625     3.0275     1.7094 C.ar    
   7 O7             0.5255     3.4067     2.2579 O.3     
   8 C8             1.8222     2.8451     2.4711 C.3     
   9 C9            -3.5892    -0.1478     0.8853 C.2     
  10 C10           -3.4303    -1.6428     0.7247 C.3     
  11 C11           -4.8444    -2.1283     0.3492 C.3     
  12 N12           -5.6416    -0.8914     0.3351 N.am    
  13 N13           -4.8148     0.1811     0.6633 N.2     
  14 C14           -6.9574    -0.8100     0.0551 C.2     
  15 O15           -7.5834    -1.8135    -0.2148 O.2     
  16 C16           -7.6511     0.5277     0.0771 C.3     
  17 C17           -9.1105     0.3315     0.3974 C.ar    
  18 C18           -9.5094    -0.7383     1.1767 C.ar    
  19 F19           -8.2494     0.4729    -2.2389 F       
  20 O20           -2.0200     4.3577     1.8266 O.3     
  21 C21           -3.3619     4.7829     1.5803 C.3     
  22 C22          -10.0498     1.2246    -0.0835 C.ar    
  23 C23          -11.3885     1.0446     0.2102 C.ar    
  24 C24          -11.7881    -0.0286     0.9845 C.ar    
  25 C25          -10.8482    -0.9183     1.4704 C.ar    
  26 O26           -7.0522     1.3584     1.0738 O.3     
  27 C27           -7.1254     0.8236     2.3969 C.3     
  28 F28           -8.0031     2.5047    -1.2239 F       
  29 C29           -7.5148     1.1955    -1.2927 C.3     
  30 F30           -6.1672     1.2196    -1.6677 F       
  31 H31            0.7938     0.8205     1.9805 H       
  32 H32           -1.0049    -0.7431     1.3787 H       
  33 H33           -3.7764     2.5275     1.1938 H       
  34 H34            2.5237     3.6384     2.7292 H       
  35 H35            1.7756     2.1221     3.2854 H       
  36 H36            2.1563     2.3465     1.5612 H       
  37 H37           -2.7239    -1.8686    -0.0740 H       
  38 H38           -3.1069    -2.0958     1.6619 H       
  39 H39           -4.8410    -2.5937    -0.6365 H       
  40 H40           -5.2242    -2.8209     1.1002 H       
  41 H41           -8.7752    -1.4337     1.5557 H       
  42 H42           -4.0337     4.2914     2.2840 H       
  43 H43           -3.4298     5.8633     1.7074 H       
  44 H44           -3.6457     4.5183     0.5617 H       
  45 H45           -9.7376     2.0630    -0.6884 H       
  46 H46          -12.1222     1.7427    -0.1648 H       
  47 H47          -12.8339    -0.1690     1.2143 H       
  48 H48          -11.1603    -1.7567     2.0753 H       
  49 H49           -8.1701     0.6879     2.6766 H       
  50 H50           -6.6128    -0.1378     2.4291 H       
  51 H51           -6.6491     1.5129     3.0942 H       
@<TRIPOS>BOND
   1    1    2 ar
   2    1    7 1
   3    1    6 ar
   4    2    3 ar
   5    2   31 1
   6    3    4 ar
   7    3   32 1
   8    4    5 ar
   9    4    9 1
  10    5    6 ar
  11    5   33 1
  12    6   20 1
  13    7    8 1
  14    8   34 1
  15    8   35 1
  16    8   36 1
  17    9   10 1
  18    9   13 2
  19   10   11 1
  20   10   37 1
  21   10   38 1
  22   11   12 1
  23   11   39 1
  24   11   40 1
  25   12   13 1
  26   12   14 am
  27   14   15 2
  28   14   16 1
  29   16   17 1
  30   16   29 1
  31   16   26 1
  32   17   18 ar
  33   17   22 ar
  34   18   25 ar
  35   18   41 1
  36   19   29 1
  37   20   21 1
  38   21   42 1
  39   21   43 1
  40   21   44 1
  41   22   23 ar
  42   22   45 1
  43   23   24 ar
  44   23   46 1
  45   24   25 ar
  46   24   47 1
  47   25   48 1
  48   26   27 1
  49   27   49 1
  50   27   50 1
  51   27   51 1
  52   28   29 1
  53   29   30 1

#	End of record

