#	Name: ASD01000133
#	Creating user name:	WinNT
#	Creation time:	15. 06. 2019 18:54

#	Modifying user name:	WinNT
#	Modification time:	15. 06. 2019 18:54

#	Program:	/corina/corina34_cracker 3.40 0067  02.08.2006

@<TRIPOS>MOLECULE
ASD01000133
  67   70    0    0    0
SMALL
NO_CHARGES


@<TRIPOS>ATOM
   1 C1             0.2893     1.3104    -0.3705 C.ar    
   2 N2             1.5789    -2.9605    -1.0838 N.2     
   3 O3            -5.7887    -3.7198    -4.5830 O.2     
   4 C4             0.2608    -0.0683    -0.2962 C.ar    
   5 N5            -3.5456    -4.5301    -0.4389 N.3     
   6 C6             1.4466    -0.7804    -0.1652 C.ar    
   7 N7            -5.4451    -4.0121    -2.4108 N.am    
   8 C8             2.6596    -0.1005    -0.1094 C.ar    
   9 N9             1.4213    -2.1744    -0.0894 N.pl3   
  10 C10            2.6794     1.2803    -0.1845 C.ar    
  11 C11            1.4962     1.9838    -0.3148 C.ar    
  12 C12           -0.0501    -5.1285     0.9094 C.3     
  13 C13           -1.1689    -4.4216     0.1416 C.3     
  14 C14            2.0240    -4.9496    -3.1971 C.3     
  15 C15           -0.9964     2.0823    -0.5188 C.3     
  16 C16           -2.4714    -5.2089     0.2983 C.3     
  17 C17           -4.7476    -5.3715    -0.5111 C.3     
  18 C18            1.2756    -4.4072     0.6580 C.3     
  19 C19            1.2084    -2.9432     1.1474 C.3     
  20 C20           -3.0937    -4.1304    -1.7783 C.3     
  21 C21           -4.1747    -3.2717    -2.4433 C.3     
  22 C22            2.4171    -5.1415     1.3129 C.ar    
  23 C23           -5.8964    -4.5636    -1.1242 C.3     
  24 C24            3.7170    -4.7140     1.1167 C.ar    
  25 C25            4.7641    -5.3876     1.7174 C.ar    
  26 C26            4.5113    -6.4883     2.5145 C.ar    
  27 C27            3.2113    -6.9152     2.7114 C.ar    
  28 C28            2.1639    -6.2390     2.1143 C.ar    
  29 C29            1.5242    -4.2334    -0.8282 C.2     
  30 C30           -6.1762    -4.1811    -3.5304 C.2     
  31 C31           -7.4750    -4.9433    -3.4743 C.3     
  32 C32            1.6703    -5.2713    -1.7679 C.2     
  33 O33            1.5112    -6.4264    -1.4268 O.2     
  34 F34            3.8155    -0.7880     0.0183 F       
  35 H35           -0.6825    -0.5925    -0.3395 H       
  36 H36            3.6199     1.8095    -0.1414 H       
  37 H37            1.5144     3.0621    -0.3732 H       
  38 H38           -0.2755    -5.1133     1.9757 H       
  39 H39            0.0278    -6.1611     0.5691 H       
  40 H40           -1.3025    -3.4153     0.5387 H       
  41 H41           -0.9044    -4.3633    -0.9143 H       
  42 H42            2.1253    -3.8705    -3.3122 H       
  43 H43            2.9662    -5.4327    -3.4557 H       
  44 H44            1.2362    -5.3130    -3.8570 H       
  45 H45           -1.3903     2.3253     0.4680 H       
  46 H46           -0.8060     3.0028    -1.0708 H       
  47 H47           -1.7230     1.4772    -1.0611 H       
  48 H48           -2.7359    -5.2671     1.3541 H       
  49 H49           -2.3378    -6.2151    -0.0988 H       
  50 H50           -4.5443    -6.2437    -1.1323 H       
  51 H51           -5.0255    -5.6955     0.4919 H       
  52 H52            2.0000    -2.7407     1.8688 H       
  53 H53            0.2300    -2.7237     1.5747 H       
  54 H54           -2.1721    -3.5544    -1.6944 H       
  55 H55           -2.9134    -5.0200    -2.3819 H       
  56 H56           -3.8960    -3.0681    -3.4772 H       
  57 H57           -4.2835    -2.3337    -1.8989 H       
  58 H58           -6.1707    -3.7498    -0.4530 H       
  59 H59           -6.7559    -5.2142    -1.2859 H       
  60 H60            3.9145    -3.8541     0.4940 H       
  61 H61            5.7798    -5.0541     1.5636 H       
  62 H62            5.3295    -7.0149     2.9832 H       
  63 H63            3.0138    -7.7753     3.3339 H       
  64 H64            1.1480    -6.5702     2.2711 H       
  65 H65           -7.9204    -4.9757    -4.4686 H       
  66 H66           -7.2855    -5.9592    -3.1277 H       
  67 H67           -8.1586    -4.4461    -2.7861 H       
@<TRIPOS>BOND
   1    1    4 ar
   2    1   11 ar
   3    1   15 1
   4    2    9 1
   5    2   29 2
   6    3   30 2
   7    4    6 ar
   8    4   35 1
   9    5   16 1
  10    5   17 1
  11    5   20 1
  12    6    8 ar
  13    6    9 1
  14    7   21 1
  15    7   23 1
  16    7   30 am
  17    8   10 ar
  18    8   34 1
  19    9   19 1
  20   10   11 ar
  21   10   36 1
  22   11   37 1
  23   12   13 1
  24   12   18 1
  25   12   38 1
  26   12   39 1
  27   13   16 1
  28   13   40 1
  29   13   41 1
  30   14   32 1
  31   14   42 1
  32   14   43 1
  33   14   44 1
  34   15   45 1
  35   15   46 1
  36   15   47 1
  37   16   48 1
  38   16   49 1
  39   17   23 1
  40   17   50 1
  41   17   51 1
  42   18   19 1
  43   18   22 1
  44   18   29 1
  45   19   52 1
  46   19   53 1
  47   20   21 1
  48   20   54 1
  49   20   55 1
  50   21   56 1
  51   21   57 1
  52   22   24 ar
  53   22   28 ar
  54   23   58 1
  55   23   59 1
  56   24   25 ar
  57   24   60 1
  58   25   26 ar
  59   25   61 1
  60   26   27 ar
  61   26   62 1
  62   27   28 ar
  63   27   63 1
  64   28   64 1
  65   29   32 1
  66   30   31 1
  67   31   65 1
  68   31   66 1
  69   31   67 1
  70   32   33 2

#	End of record

