#	Name: ASD01890300
#	Creating user name:	WinNT
#	Creation time:	15. 06. 2019 19:50

#	Modifying user name:	WinNT
#	Modification time:	15. 06. 2019 19:50

#	Program:	/corina/corina34_cracker 3.40 0067  02.08.2006

@<TRIPOS>MOLECULE
ASD01890300
  34   37    0    0    0
SMALL
NO_CHARGES


@<TRIPOS>ATOM
   1 C1            -0.0155     1.2927     0.0091 C.2     
   2 N2             0.0021    -0.0041     0.0020 N.2     
   3 C3             1.2786    -0.4403    -0.0051 C.ar    
   4 C4             2.1154     0.7036    -0.0061 C.ar    
   5 N5             1.2753     1.7825    -0.0005 N.am    
   6 C6             1.8247    -1.7280    -0.0106 C.ar    
   7 C7             3.2056    -1.8250    -0.0168 C.ar    
   8 C8             4.0198    -0.7036    -0.0172 C.ar    
   9 C9             3.4989     0.5817    -0.0119 C.ar    
  10 C10           -1.2245     2.2000     0.0325 C.3     
  11 C11           -0.8006     3.5290     0.6723 C.3     
  12 C12            0.4190     4.0902    -0.0605 C.3     
  13 C13            1.5581     3.1007    -0.0087 C.2     
  14 O14            2.7036     3.4836     0.0248 O.2     
  15 C15           -1.9373     4.5142     0.5811 C.ar    
  16 C16           -2.4814     5.0504     1.7332 C.ar    
  17 C17           -3.5241     5.9540     1.6494 C.ar    
  18 C18           -4.0224     6.3218     0.4136 C.ar    
  19 C19           -3.4777     5.7864    -0.7386 C.ar    
  20 C20           -2.4321     4.8860    -0.6550 C.ar    
  21 Cl21           5.7430    -0.9139    -0.0245 Cl      
  22 Cl22           3.9392    -3.3983    -0.0237 Cl      
  23 H23            1.1972    -2.6070    -0.0096 H       
  24 H24            4.1411     1.4500    -0.0129 H       
  25 H25           -1.5744     2.3751    -0.9848 H       
  26 H26           -2.0181     1.7425     0.6231 H       
  27 H27           -0.5492     3.3630     1.7199 H       
  28 H28            0.1572     4.2857    -1.1004 H       
  29 H29            0.7280     5.0220     0.4133 H       
  30 H30           -2.0921     4.7630     2.6987 H       
  31 H31           -3.9497     6.3724     2.5496 H       
  32 H32           -4.8376     7.0273     0.3482 H       
  33 H33           -3.8672     6.0735    -1.7041 H       
  34 H34           -2.0040     4.4704    -1.5553 H       
@<TRIPOS>BOND
   1    1    2 2
   2    1    5 1
   3    1   10 1
   4    2    3 1
   5    3    4 ar
   6    3    6 ar
   7    4    5 1
   8    4    9 ar
   9    5   13 am
  10    6    7 ar
  11    6   23 1
  12    7    8 ar
  13    7   22 1
  14    8    9 ar
  15    8   21 1
  16    9   24 1
  17   10   11 1
  18   10   25 1
  19   10   26 1
  20   11   12 1
  21   11   15 1
  22   11   27 1
  23   12   13 1
  24   12   28 1
  25   12   29 1
  26   13   14 2
  27   15   16 ar
  28   15   20 ar
  29   16   17 ar
  30   16   30 1
  31   17   18 ar
  32   17   31 1
  33   18   19 ar
  34   18   32 1
  35   19   20 ar
  36   19   33 1
  37   20   34 1

#	End of record

