#	Name: ASD01151037
#	Creating user name:	WinNT
#	Creation time:	15. 06. 2019 19:05

#	Modifying user name:	WinNT
#	Modification time:	15. 06. 2019 19:05

#	Program:	/corina/corina34_cracker 3.40 0067  02.08.2006

@<TRIPOS>MOLECULE
ASD01151037
  27   28    0    0    0
SMALL
NO_CHARGES


@<TRIPOS>ATOM
   1 C1            -0.2408     1.4046     0.1494 C.2     
   2 C2            -0.1395     0.0913     0.0879 C.2     
   3 C3             1.2137    -0.5965     0.0360 C.3     
   4 O4             2.1211     0.2232    -0.7219 O.3     
   5 C5             1.0580    -1.9464    -0.6692 C.3     
   6 C6            -0.3462    -2.5255    -0.4985 C.3     
   7 C7            -1.3805    -1.6417    -1.2333 C.3     
   8 C8            -1.3710    -0.8041     0.0640 C.3     
   9 C9            -1.0983    -2.1438     0.7770 C.3     
  10 C10           -2.3750    -2.9781     1.0019 C.3     
  11 C11           -0.2701    -2.0646     2.0554 C.3     
  12 H12            0.6502     2.0148     0.1638 H       
  13 H13           -1.2147     1.8702     0.1809 H       
  14 H14            1.6304    -0.7199     1.0330 H       
  15 H15            2.2567     1.1060    -0.3513 H       
  16 H16            1.2656    -1.8188    -1.7371 H       
  17 H17            1.7910    -2.6515    -0.2648 H       
  18 H18           -0.4103    -3.5858    -0.7650 H       
  19 H19           -0.9580    -1.1143    -2.0922 H       
  20 H20           -2.3188    -2.1309    -1.4604 H       
  21 H21           -2.3116    -0.3006     0.3133 H       
  22 H22           -3.0116    -2.9130     0.1195 H       
  23 H23           -2.1027    -4.0188     1.1775 H       
  24 H24           -2.9133    -2.5923     1.8676 H       
  25 H25           -0.6937    -1.3087     2.7166 H       
  26 H26           -0.2813    -3.0327     2.5562 H       
  27 H27            0.7567    -1.7959     1.8071 H       
@<TRIPOS>BOND
   1    1    2 2
   2    1   12 1
   3    1   13 1
   4    2    3 1
   5    2    8 1
   6    3    4 1
   7    3    5 1
   8    3   14 1
   9    4   15 1
  10    5    6 1
  11    5   16 1
  12    5   17 1
  13    6    7 1
  14    6    9 1
  15    6   18 1
  16    7    8 1
  17    7   19 1
  18    7   20 1
  19    8    9 1
  20    8   21 1
  21    9   10 1
  22    9   11 1
  23   10   22 1
  24   10   23 1
  25   10   24 1
  26   11   25 1
  27   11   26 1
  28   11   27 1

#	End of record

