#	Name: ASD02630002
#	Creating user name:	WinNT
#	Creation time:	15. 06. 2019 20:26

#	Modifying user name:	WinNT
#	Modification time:	15. 06. 2019 20:26

#	Program:	/corina/corina34_cracker 3.40 0067  02.08.2006

@<TRIPOS>MOLECULE
ASD02630002
  72   76    0    0    0
SMALL
NO_CHARGES


@<TRIPOS>ATOM
   1 C1            -0.0170     1.4010     0.0097 C.ar    
   2 C2             0.0021    -0.0041     0.0020 C.ar    
   3 N3            -1.1504    -0.6657     0.0098 N.ar    
   4 C4            -2.2961    -0.0175     0.0246 C.ar    
   5 N5            -2.3643     1.3012     0.0320 N.ar    
   6 C6            -1.2644     2.0474     0.0303 C.ar    
   7 N7             1.2720     1.8178    -0.0003 N.2     
   8 C8             2.0616     0.7834    -0.0134 C.2     
   9 N9             1.3259    -0.3642    -0.0126 N.pl3   
  10 N10           -1.3460     3.4288     0.0380 N.pl3   
  11 C11            1.8522    -1.7313    -0.0249 C.3     
  12 C12            1.9420    -2.2861     1.4140 C.3     
  13 O13            2.0392    -1.2173     2.3575 O.3     
  14 C14            3.2386    -3.1264     1.4123 C.3     
  15 O15            2.9484    -4.4954     1.7014 O.3     
  16 C16            3.7788    -2.9799    -0.0276 C.3     
  17 O17            3.2125    -1.7420    -0.5101 O.3     
  18 C18            5.3066    -2.8984    -0.0175 C.3     
  19 O19            5.7915    -2.8807    -1.3616 O.3     
  20 P20            7.3572    -2.7995    -1.7279 P.3     
  21 O21            7.9577    -1.6189    -1.0677 O.2     
  22 O22            8.0978    -4.1347    -1.2170 O.3     
  23 O23            7.5290    -2.6676    -3.3233 O.3     
  24 P24            8.7500    -2.2498    -4.2859 P.3     
  25 O25            8.9623    -0.6552    -4.2222 O.3     
  26 O26            9.9858    -2.9303    -3.8387 O.2     
  27 O27            8.4143    -2.6865    -5.7988 O.3     
  28 C28            9.3453    -2.5473    -6.8738 C.3     
  29 C29            8.7086    -3.0554    -8.1690 C.3     
  30 O30            7.6080    -2.2073    -8.5612 O.3     
  31 C31            9.7021    -2.9286    -9.3519 C.3     
  32 C32            8.7489    -2.8569   -10.5697 C.3     
  33 C33            7.4015    -2.4119    -9.9689 C.3     
  34 O34            9.2174    -1.8936   -11.5155 O.3     
  35 O35           10.4779    -1.7337    -9.2405 O.3     
  36 C36            7.1090     1.1829   -10.7477 C.ar    
  37 C37            7.4905    -0.0224   -10.1857 C.ar    
  38 N38            6.9655    -1.1613   -10.5953 N.ar    
  39 C39            6.0611    -1.2062   -11.5516 C.ar    
  40 C40            5.6233    -0.0346   -12.1697 C.ar    
  41 C41            6.1618     1.1901   -11.7562 C.ar    
  42 C42            4.6084    -0.0852   -13.2435 C.2     
  43 N43            4.1935     1.0536   -13.8329 N.am    
  44 O44            4.1480    -1.1539   -13.5947 O.2     
  45 H45           -3.2146    -0.5855     0.0307 H       
  46 H46            3.1406     0.8276    -0.0240 H       
  47 H47           -2.2132     3.8635     0.0448 H       
  48 H48           -0.5360     3.9625     0.0367 H       
  49 H49            1.2245    -2.3750    -0.6412 H       
  50 H50            1.0784    -2.9130     1.6363 H       
  51 H51            2.0983    -1.5090     3.2776 H       
  52 H52            3.9529    -2.7280     2.1328 H       
  53 H53            2.5503    -4.6379     2.5710 H       
  54 H54            3.4466    -3.8150    -0.6443 H       
  55 H55            5.6185    -1.9875     0.4933 H       
  56 H56            5.7132    -3.7649     0.5041 H       
  57 H57            7.7549    -4.9493    -1.6093 H       
  58 H58            8.1905    -0.1441    -4.5021 H       
  59 H59            9.6136    -1.4971    -6.9885 H       
  60 H60           10.2409    -3.1294    -6.6565 H       
  61 H61            8.3760    -4.0869    -8.0528 H       
  62 H62           10.3471    -3.8051    -9.4138 H       
  63 H63            8.6549    -3.8363   -11.0387 H       
  64 H64            6.6519    -3.1877   -10.1247 H       
  65 H65           10.0894    -2.0942   -11.8821 H       
  66 H66           11.1143    -1.6097    -9.9578 H       
  67 H67            7.5435     2.1086   -10.4005 H       
  68 H68            8.2296    -0.0311    -9.3983 H       
  69 H69            5.6551    -2.1582   -11.8601 H       
  70 H70            5.8456     2.1165   -12.2125 H       
  71 H71            4.5609     1.9065   -13.5526 H       
  72 H72            3.5276     1.0204   -14.5374 H       
@<TRIPOS>BOND
   1    1    2 ar
   2    1    7 1
   3    1    6 ar
   4    2    3 ar
   5    2    9 1
   6    3    4 ar
   7    4    5 ar
   8    4   45 1
   9    5    6 ar
  10    6   10 1
  11    7    8 2
  12    8    9 1
  13    8   46 1
  14    9   11 1
  15   10   47 1
  16   10   48 1
  17   11   12 1
  18   11   17 1
  19   11   49 1
  20   12   13 1
  21   12   14 1
  22   12   50 1
  23   13   51 1
  24   14   15 1
  25   14   16 1
  26   14   52 1
  27   15   53 1
  28   16   17 1
  29   16   18 1
  30   16   54 1
  31   18   19 1
  32   18   55 1
  33   18   56 1
  34   19   20 1
  35   20   21 2
  36   20   22 1
  37   20   23 1
  38   22   57 1
  39   23   24 1
  40   24   25 1
  41   24   26 2
  42   24   27 1
  43   25   58 1
  44   27   28 1
  45   28   29 1
  46   28   59 1
  47   28   60 1
  48   29   30 1
  49   29   31 1
  50   29   61 1
  51   30   33 1
  52   31   32 1
  53   31   35 1
  54   31   62 1
  55   32   34 1
  56   32   33 1
  57   32   63 1
  58   33   38 1
  59   33   64 1
  60   34   65 1
  61   35   66 1
  62   36   37 ar
  63   36   41 ar
  64   36   67 1
  65   37   38 ar
  66   37   68 1
  67   38   39 ar
  68   39   40 ar
  69   39   69 1
  70   40   41 ar
  71   40   42 1
  72   41   70 1
  73   42   43 am
  74   42   44 2
  75   43   71 1
  76   43   72 1

#	End of record

