#	Name: ASD01120044
#	Creating user name:	WinNT
#	Creation time:	15. 06. 2019 18:58

#	Modifying user name:	WinNT
#	Modification time:	15. 06. 2019 18:58

#	Program:	/corina/corina34_cracker 3.40 0067  02.08.2006

@<TRIPOS>MOLECULE
ASD01120044
  51   54    0    0    0
SMALL
NO_CHARGES


@<TRIPOS>ATOM
   1 C1            -0.0907     1.3500     0.6498 C.ar    
   2 C2            -0.0525    -0.0391     0.4659 C.ar    
   3 C3            -1.1845    -0.7311     0.0961 C.ar    
   4 C4            -2.3851    -0.0371    -0.0970 C.ar    
   5 C5            -2.4161     1.3670     0.0913 C.ar    
   6 C6            -1.2527     2.0460     0.4722 C.ar    
   7 N7            -3.5156    -0.6644    -0.4579 N.ar    
   8 C8            -4.6255     0.0128    -0.6319 C.ar    
   9 N9            -4.7019     1.3239    -0.4680 N.ar    
  10 C10           -3.6440     2.0409    -0.1117 C.ar    
  11 N11           -3.7383     3.4077     0.0561 N.pl3   
  12 C12           -4.9832     4.0395    -0.0352 C.ar    
  13 C13           -6.1290     3.3760     0.3767 C.ar    
  14 C14           -7.3664     4.0081     0.2844 C.ar    
  15 C15           -7.4463     5.3060    -0.2223 C.ar    
  16 C16           -6.2986     5.9600    -0.6307 C.ar    
  17 C17           -5.0705     5.3340    -0.5334 C.ar    
  18 C18           -8.5962     3.3037     0.7229 C.2     
  19 O19            1.0401     2.0114     1.0146 O.3     
  20 O20            1.1137    -0.7099     0.6540 O.3     
  21 C21            0.9373     3.4263     1.1865 C.3     
  22 C22            2.2998     3.9909     1.5937 C.3     
  23 C23            1.0886    -2.1243     0.4513 C.3     
  24 C24            2.4824    -2.7010     0.7073 C.3     
  25 C25           -9.8226     3.8602     0.6592 C.2     
  26 S26          -10.9821     2.6859     1.2758 S.3     
  27 C27           -9.7200     1.5685     1.5581 C.2     
  28 N28           -8.5868     2.0700     1.2066 N.2     
  29 C29           -9.9074     0.1879     2.1325 C.3     
  30 F30           -8.6447     5.9230    -0.3142 F       
  31 H31           -1.1463    -1.8013    -0.0442 H       
  32 H32           -1.2717     3.1161     0.6168 H       
  33 H33           -5.5168    -0.5235    -0.9222 H       
  34 H34           -2.9413     3.9302     0.2372 H       
  35 H35           -6.0619     2.3716     0.7679 H       
  36 H36           -6.3616     6.9642    -1.0231 H       
  37 H37           -4.1768     5.8491    -0.8534 H       
  38 H38            0.6196     3.8840     0.2497 H       
  39 H39            0.2060     3.6456     1.9644 H       
  40 H40            2.2214     5.0701     1.7248 H       
  41 H41            2.6175     3.5331     2.5305 H       
  42 H42            3.0311     3.7716     0.8158 H       
  43 H43            0.3757    -2.5774     1.1401 H       
  44 H44            0.7893    -2.3390    -0.5746 H       
  45 H45            3.1953    -2.2479     0.0185 H       
  46 H46            2.7816    -2.4863     1.7332 H       
  47 H47            2.4632    -3.7798     0.5527 H       
  48 H48          -10.0533     4.8504     0.2949 H       
  49 H49          -10.9649     0.0194     2.3358 H       
  50 H50           -9.5520    -0.5543     1.4177 H       
  51 H51           -9.3407     0.1001     3.0595 H       
@<TRIPOS>BOND
   1    1    2 ar
   2    1   19 1
   3    1    6 ar
   4    2    3 ar
   5    2   20 1
   6    3    4 ar
   7    3   31 1
   8    4    5 ar
   9    4    7 ar
  10    5    6 ar
  11    5   10 ar
  12    6   32 1
  13    7    8 ar
  14    8    9 ar
  15    8   33 1
  16    9   10 ar
  17   10   11 1
  18   11   12 1
  19   11   34 1
  20   12   13 ar
  21   12   17 ar
  22   13   14 ar
  23   13   35 1
  24   14   15 ar
  25   14   18 1
  26   15   16 ar
  27   15   30 1
  28   16   17 ar
  29   16   36 1
  30   17   37 1
  31   18   25 2
  32   18   28 1
  33   19   21 1
  34   20   23 1
  35   21   22 1
  36   21   38 1
  37   21   39 1
  38   22   40 1
  39   22   41 1
  40   22   42 1
  41   23   24 1
  42   23   43 1
  43   23   44 1
  44   24   45 1
  45   24   46 1
  46   24   47 1
  47   25   26 1
  48   25   48 1
  49   26   27 1
  50   27   28 2
  51   27   29 1
  52   29   49 1
  53   29   50 1
  54   29   51 1

#	End of record

