#	Name: ASD01915952
#	Creating user name:	WinNT
#	Creation time:	15. 06. 2019 20:06

#	Modifying user name:	WinNT
#	Modification time:	15. 06. 2019 20:06

#	Program:	/corina/corina34_cracker 3.40 0067  02.08.2006

@<TRIPOS>MOLECULE
ASD01915952
  42   45    0    0    0
SMALL
NO_CHARGES


@<TRIPOS>ATOM
   1 C1            -0.0985     1.0949     0.0297 C.2     
   2 C2            -0.1590    -0.2751     0.0713 C.2     
   3 C3            -1.5092    -0.9727     0.1022 C.3     
   4 C4            -2.5183    -0.0635     0.8007 C.3     
   5 N5            -2.4756     1.3064     0.3022 N.am    
   6 C6            -1.3048     1.9302     0.0347 C.2     
   7 O7            -1.2549     3.1250    -0.1902 O.2     
   8 S8             1.5834     1.5780    -0.0128 S.3     
   9 C9             2.0620    -0.0640     0.0358 C.2     
  10 N10            1.0236    -0.8365     0.0754 N.2     
  11 O11            3.9241    -0.7397    -1.3151 O.3     
  12 C12            5.1989    -1.1743    -1.4961 C.ar    
  13 C13            5.6856    -1.3859    -2.7779 C.ar    
  14 C14            6.0178    -1.4017    -0.3995 C.ar    
  15 C15            7.3135    -1.8430    -0.5862 C.ar    
  16 C16            7.7945    -2.0577    -1.8645 C.ar    
  17 C17            6.9820    -1.8272    -2.9593 C.ar    
  18 C18            3.4907    -0.5436     0.0324 C.3     
  19 C19           -3.6713     1.9908     0.0962 C.ar    
  20 N20           -4.2168     2.0095    -1.1097 N.ar    
  21 C21           -5.3482     2.6452    -1.3477 C.ar    
  22 C22           -6.0077     3.3185    -0.3387 C.ar    
  23 C23           -5.4687     3.3231     0.9409 C.ar    
  24 C24           -4.2840     2.6433     1.1605 C.ar    
  25 C25           -3.6603     2.6191     2.5322 C.3     
  26 H26           -1.8410    -1.1715    -0.9169 H       
  27 H27           -1.4229    -1.9112     0.6498 H       
  28 H28           -3.5201    -0.4641     0.6455 H       
  29 H29           -2.3054    -0.0564     1.8697 H       
  30 H30            5.0513    -1.2060    -3.6333 H       
  31 H31            5.6427    -1.2335     0.5992 H       
  32 H32            7.9513    -2.0202     0.2672 H       
  33 H33            8.8079    -2.4024    -2.0084 H       
  34 H34            7.3599    -1.9959    -3.9568 H       
  35 H35            4.1250     0.2010     0.5133 H       
  36 H36            3.5591    -1.4854     0.5768 H       
  37 H37           -5.7635     2.6392    -2.3446 H       
  38 H38           -6.9332     3.8364    -0.5427 H       
  39 H39           -5.9652     3.8423     1.7473 H       
  40 H40           -4.0598     1.7775     3.0982 H       
  41 H41           -2.5795     2.5135     2.4381 H       
  42 H42           -3.8906     3.5489     3.0525 H       
@<TRIPOS>BOND
   1    1    2 2
   2    1    8 1
   3    1    6 1
   4    2    3 1
   5    2   10 1
   6    3    4 1
   7    3   26 1
   8    3   27 1
   9    4    5 1
  10    4   28 1
  11    4   29 1
  12    5    6 am
  13    5   19 1
  14    6    7 2
  15    8    9 1
  16    9   10 2
  17    9   18 1
  18   11   12 1
  19   11   18 1
  20   12   13 ar
  21   12   14 ar
  22   13   17 ar
  23   13   30 1
  24   14   15 ar
  25   14   31 1
  26   15   16 ar
  27   15   32 1
  28   16   17 ar
  29   16   33 1
  30   17   34 1
  31   18   35 1
  32   18   36 1
  33   19   20 ar
  34   19   24 ar
  35   20   21 ar
  36   21   22 ar
  37   21   37 1
  38   22   23 ar
  39   22   38 1
  40   23   24 ar
  41   23   39 1
  42   24   25 1
  43   25   40 1
  44   25   41 1
  45   25   42 1

#	End of record

