#	Name: ASD01120096
#	Creating user name:	WinNT
#	Creation time:	15. 06. 2019 18:58

#	Modifying user name:	WinNT
#	Modification time:	15. 06. 2019 18:58

#	Program:	/corina/corina34_cracker 3.40 0067  02.08.2006

@<TRIPOS>MOLECULE
ASD01120096
  43   47    0    0    0
SMALL
NO_CHARGES


@<TRIPOS>ATOM
   1 C1            -0.0162     1.4663    -0.0414 C.ar    
   2 C2             0.0052     0.0011    -0.0666 C.ar    
   3 C3            -1.1906    -0.7203    -0.0591 C.ar    
   4 C4            -2.3999    -0.0383    -0.0276 C.ar    
   5 C5            -2.4175     1.4286    -0.0023 C.ar    
   6 C6            -1.2343     2.1500    -0.0149 C.ar    
   7 N7            -3.5820    -0.6828    -0.0196 N.ar    
   8 C8            -4.7081    -0.0183     0.0098 C.ar    
   9 N9            -4.8003     1.3008     0.0338 N.ar    
  10 C10           -3.7286     2.0828     0.0299 C.ar    
  11 N11           -3.8436     3.4555     0.0557 N.pl3   
  12 C12           -5.1040     4.0531    -0.0351 C.ar    
  13 C13           -5.3647     5.2299     0.6507 C.ar    
  14 C14           -6.6220     5.8215     0.5571 C.ar    
  15 C15           -7.6111     5.2276    -0.2253 C.ar    
  16 C16           -7.3437     4.0557    -0.9047 C.ar    
  17 C17           -6.0948     3.4711    -0.8175 C.ar    
  18 C18           -6.9080     7.0801     1.2885 C.2     
  19 C19           -8.1035     7.7018     1.2391 C.2     
  20 S20           -8.0042     9.1452     2.2443 S.3     
  21 C21           -6.3803     8.7794     2.6320 C.2     
  22 N22           -6.0129     7.6895     2.0524 N.2     
  23 C23           -5.5031     9.6123     3.5308 C.3     
  24 C24            1.2098     2.1635    -0.0503 C.ar    
  25 C25            2.3758     1.4677    -0.0820 C.ar    
  26 C26            2.3964     0.0734    -0.1059 C.ar    
  27 C27            1.2521    -0.6578    -0.0989 C.ar    
  28 H28           -1.1749    -1.8001    -0.0780 H       
  29 H29           -1.2536     3.2297     0.0043 H       
  30 H30           -5.6267    -0.5863     0.0144 H       
  31 H31           -3.0499     4.0072     0.1369 H       
  32 H32           -4.5952     5.6860     1.2559 H       
  33 H33           -8.5870     5.6841    -0.2997 H       
  34 H34           -8.1118     3.5969    -1.5097 H       
  35 H35           -5.8906     2.5547    -1.3512 H       
  36 H36           -8.9684     7.3732     0.6821 H       
  37 H37           -6.0651    10.4746     3.8894 H       
  38 H38           -5.1786     9.0112     4.3802 H       
  39 H39           -4.6311     9.9534     2.9728 H       
  40 H40            1.2214     3.2433    -0.0325 H       
  41 H41            3.3109     2.0080    -0.0891 H       
  42 H42            3.3473    -0.4381    -0.1311 H       
  43 H43            1.2963    -1.7368    -0.1182 H       
@<TRIPOS>BOND
   1    1    2 ar
   2    1   24 ar
   3    1    6 ar
   4    2    3 ar
   5    2   27 ar
   6    3    4 ar
   7    3   28 1
   8    4    5 ar
   9    4    7 ar
  10    5    6 ar
  11    5   10 ar
  12    6   29 1
  13    7    8 ar
  14    8    9 ar
  15    8   30 1
  16    9   10 ar
  17   10   11 1
  18   11   12 1
  19   11   31 1
  20   12   13 ar
  21   12   17 ar
  22   13   14 ar
  23   13   32 1
  24   14   15 ar
  25   14   18 1
  26   15   16 ar
  27   15   33 1
  28   16   17 ar
  29   16   34 1
  30   17   35 1
  31   18   19 2
  32   18   22 1
  33   19   20 1
  34   19   36 1
  35   20   21 1
  36   21   22 2
  37   21   23 1
  38   23   37 1
  39   23   38 1
  40   23   39 1
  41   24   25 ar
  42   24   40 1
  43   25   26 ar
  44   25   41 1
  45   26   27 ar
  46   26   42 1
  47   27   43 1

#	End of record

