#	Name: ASD05143055
#	Creating user name:	WinNT
#	Creation time:	15. 06. 2019 20:57

#	Modifying user name:	WinNT
#	Modification time:	15. 06. 2019 20:57

#	Program:	/corina/corina34_cracker 3.40 0067  02.08.2006

@<TRIPOS>MOLECULE
ASD05143055
 142  145    0    0    0
SMALL
NO_CHARGES


@<TRIPOS>ATOM
   1 C1            -2.6784     5.6684     8.4891 C.2     
   2 C2            -2.2850     5.0312     9.7968 C.3     
   3 N3            -1.7313     6.1706     7.6723 N.am    
   4 O4            -3.8470     5.7248     8.1694 O.2     
   5 C5            -2.1137     6.7900     6.4010 C.3     
   6 C6            -2.8441     5.7635     5.5328 C.3     
   7 C7            -3.0238     7.9615     6.6667 C.2     
   8 C8            -1.8816     4.6343     5.1595 C.3     
   9 C9            -2.6120     3.6078     4.2913 C.3     
  10 N10           -1.6903     2.5266     3.9338 N.pl3   
  11 C11           -2.1255     1.4826     3.1522 C.2     
  12 N12           -1.2606     0.4679     2.8167 N.pl3   
  13 N13           -3.3581     1.4548     2.7293 N.2     
  14 O14           -3.6128     8.0443     7.7236 O.2     
  15 N15           -3.1831     8.9172     5.7298 N.am    
  16 C16           -4.0677    10.0560     5.9881 C.3     
  17 C17           -3.2264    11.2929     6.3089 C.3     
  18 C18           -2.1440    10.9248     7.3255 C.3     
  19 C19           -0.9190    10.4318     6.5995 C.2     
  20 O20           -1.0185     9.6331     5.6923 O.2     
  21 N21            0.3057    10.9015     6.9818 N.am    
  22 C22            1.4569    10.3625     6.2224 C.3     
  23 C23            1.6899    11.2444     4.9941 C.3     
  24 C24            2.4728    10.4563     3.9421 C.3     
  25 C25            3.4691    11.3849     3.2451 C.3     
  26 N26            3.5546    11.0084     1.8198 N.am    
  27 C27            4.8253    11.2437     3.8870 C.2     
  28 N28            5.0932    11.8817     5.0435 N.am    
  29 O29            5.6756    10.5559     3.3628 O.2     
  30 C30            2.7799    11.7192     0.9555 C.2     
  31 O31            2.0704    12.6152     1.3614 O.2     
  32 C32            2.8151    11.3792    -0.5122 C.3     
  33 N33            1.6346    11.9896    -1.1658 N.am    
  34 C34            4.0948    11.9371    -1.1383 C.3     
  35 C35            0.6318    11.1209    -1.4919 C.2     
  36 O36            0.7383     9.9366    -1.2531 O.2     
  37 C37           -0.6093    11.6622    -2.1536 C.3     
  38 N38           -1.7402    10.7607    -1.8561 N.am    
  39 C39           -0.9115    13.0602    -1.6106 C.3     
  40 C40           -2.9021    11.3507    -1.4621 C.2     
  41 O41           -2.9767    12.5572    -1.3629 O.2     
  42 C42           -4.0944    10.4831    -1.1513 C.3     
  43 C43            4.1869    11.4914    -2.5749 C.2     
  44 C44            3.5681    12.1442    -3.7311 C.ar    
  45 C45            3.9292    11.3742    -4.8516 C.ar    
  46 N46            4.7087    10.3347    -4.3960 N.pl3   
  47 C47            4.8561    10.4241    -3.0386 C.2     
  48 C48            2.7682    13.2772    -3.8929 C.ar    
  49 C49            2.3397    13.6325    -5.1406 C.ar    
  50 C50            2.6930    12.8756    -6.2495 C.ar    
  51 C51            3.4819    11.7547    -6.1128 C.ar    
  52 N52           -4.8031    11.0515     0.0180 N.am    
  53 C53           -3.6254     9.0633    -0.8267 C.3     
  54 C54           -4.8235     8.1798    -0.5922 C.ar    
  55 C55           -5.7678     8.0207    -1.5909 C.ar    
  56 C56           -6.8666     7.2130    -1.3832 C.ar    
  57 C57           -7.0247     6.5553    -0.1616 C.ar    
  58 C58           -6.0678     6.7204     0.8418 C.ar    
  59 C59           -4.9711     7.5269     0.6187 C.ar    
  60 C60           -4.9103    10.3246     4.7677 C.2     
  61 O61           -6.1122    10.1663     4.8030 O.2     
  62 C62           -1.0534    12.9964    -0.0885 C.3     
  63 C63           -1.5008    14.3609     0.4396 C.3     
  64 N64           -1.6367    14.2999     1.8970 N.pl3   
  65 C65           -2.0307    15.4150     2.5980 C.2     
  66 N66           -2.2972    16.5875     1.9313 N.pl3   
  67 N67           -2.1515    15.3607     3.8947 N.2     
  68 N68           -4.3028    10.7471     3.6250 N.am    
  69 C69           -5.1795    10.9944     2.4629 C.3     
  70 C70           -4.4973    10.4811     1.2211 C.2     
  71 O71           -3.6912     9.5774     1.2885 O.2     
  72 C72           -8.1631     5.7157     0.0612 C.1     
  73 N73           -9.0662     5.0497     0.2379 N.1     
  74 C74           -5.4311    12.4739     2.3259 C.2     
  75 N75           -6.5041    12.9142     1.6394 N.am    
  76 O76           -4.6681    13.2683     2.8335 O.2     
  77 H77           -1.7647     5.7625    10.4153 H       
  78 H78           -3.1789     4.6862    10.3164 H       
  79 H79           -1.6268     4.1839     9.6047 H       
  80 H80           -0.7964     6.1219     7.9262 H       
  81 H81           -1.2198     7.1349     5.8814 H       
  82 H82           -3.6879     5.3531     6.0876 H       
  83 H83           -3.2064     6.2470     4.6256 H       
  84 H84           -1.0378     5.0447     4.6047 H       
  85 H85           -1.5193     4.1508     6.0667 H       
  86 H86           -3.4557     3.1974     4.8461 H       
  87 H87           -2.9742     4.0913     3.3841 H       
  88 H88           -0.7730     2.5472     4.2486 H       
  89 H89           -0.3434     0.4886     3.1315 H       
  90 H90           -1.5677    -0.2687     2.2652 H       
  91 H91           -3.6652     0.7183     2.1778 H       
  92 H92           -2.7120     8.8510     4.8845 H       
  93 H93           -4.7159     9.8280     6.8343 H       
  94 H94           -2.7575    11.6600     5.3960 H       
  95 H95           -3.8671    12.0699     6.7258 H       
  96 H96           -1.8869    11.8037     7.9167 H       
  97 H97           -2.5162    10.1402     7.9843 H       
  98 H98            0.4135    11.5438     7.7007 H       
  99 H99            2.3465    10.3703     6.8523 H       
 100 H100           1.2401     9.3426     5.9046 H       
 101 H101           0.7295    11.5502     4.5789 H       
 102 H102           2.2585    12.1281     5.2838 H       
 103 H103           3.0123     9.6418     4.4255 H       
 104 H104           1.7811    10.0471     3.2056 H       
 105 H105           3.1281    12.4167     3.3305 H       
 106 H106           4.1327    10.2914     1.5153 H       
 107 H107           4.4131    12.4318     5.4628 H       
 108 H108           5.9661    11.7908     5.4567 H       
 109 H109           2.7845    10.2969    -0.6381 H       
 110 H110           1.5774    12.9403    -1.3498 H       
 111 H111           4.0750    13.0261    -1.0963 H       
 112 H112           4.9598    11.5679    -0.5872 H       
 113 H113          -0.4561    11.7123    -3.2317 H       
 114 H114          -1.6593     9.7975    -1.9370 H       
 115 H115          -0.0966    13.7354    -1.8715 H       
 116 H116          -1.8407    13.4265    -2.0471 H       
 117 H117          -4.7650    10.4617    -2.0104 H       
 118 H118           5.0985     9.6441    -4.9545 H       
 119 H119           5.4208     9.7338    -2.4294 H       
 120 H120           2.4889    13.8704    -3.0346 H       
 121 H121           1.7210    14.5089    -5.2652 H       
 122 H122           2.3462    13.1689    -7.2294 H       
 123 H123           3.7515    11.1727    -6.9817 H       
 124 H124          -5.4399    11.7786    -0.0645 H       
 125 H125          -3.0439     8.6730    -1.6619 H       
 126 H126          -3.0061     9.0814     0.0701 H       
 127 H127          -5.6445     8.5303    -2.5351 H       
 128 H128          -7.6032     7.0900    -2.1634 H       
 129 H129          -6.1842     6.2149     1.7891 H       
 130 H130          -4.2302     7.6554     1.3939 H       
 131 H131          -1.7956    12.2433     0.1760 H       
 132 H132          -0.0935    12.7321     0.3551 H       
 133 H133          -0.7586    15.1141     0.1751 H       
 134 H134          -2.4607    14.6253    -0.0040 H       
 135 H135          -1.4486    13.4726     2.3674 H       
 136 H136          -2.2072    16.6279     0.9664 H       
 137 H137          -2.5752    17.3742     2.4259 H       
 138 H138          -2.4295    16.1474     4.3893 H       
 139 H139          -3.3431    10.8793     3.5769 H       
 140 H140          -6.1262    10.4722     2.6018 H       
 141 H141          -7.1536    12.2808     1.2961 H       
 142 H142          -6.6268    13.8646     1.4886 H       
@<TRIPOS>BOND
   1    1    2 1
   2    1    3 am
   3    1    4 2
   4    2   77 1
   5    2   78 1
   6    2   79 1
   7    3    5 1
   8    3   80 1
   9    5    6 1
  10    5    7 1
  11    5   81 1
  12    6    8 1
  13    6   82 1
  14    6   83 1
  15    7   14 2
  16    7   15 am
  17    8    9 1
  18    8   84 1
  19    8   85 1
  20    9   10 1
  21    9   86 1
  22    9   87 1
  23   10   11 1
  24   10   88 1
  25   11   12 1
  26   11   13 2
  27   12   89 1
  28   12   90 1
  29   13   91 1
  30   15   16 1
  31   15   92 1
  32   16   17 1
  33   16   60 1
  34   16   93 1
  35   17   18 1
  36   17   94 1
  37   17   95 1
  38   18   19 1
  39   18   96 1
  40   18   97 1
  41   19   20 2
  42   19   21 am
  43   21   22 1
  44   21   98 1
  45   22   23 1
  46   22   99 1
  47   22  100 1
  48   23   24 1
  49   23  101 1
  50   23  102 1
  51   24   25 1
  52   24  103 1
  53   24  104 1
  54   25   26 1
  55   25   27 1
  56   25  105 1
  57   26   30 am
  58   26  106 1
  59   27   28 am
  60   27   29 2
  61   28  107 1
  62   28  108 1
  63   30   31 2
  64   30   32 1
  65   32   33 1
  66   32   34 1
  67   32  109 1
  68   33   35 am
  69   33  110 1
  70   34   43 1
  71   34  111 1
  72   34  112 1
  73   35   36 2
  74   35   37 1
  75   37   38 1
  76   37   39 1
  77   37  113 1
  78   38   40 am
  79   38  114 1
  80   39   62 1
  81   39  115 1
  82   39  116 1
  83   40   41 2
  84   40   42 1
  85   42   52 1
  86   42   53 1
  87   42  117 1
  88   43   44 1
  89   43   47 2
  90   44   45 ar
  91   44   48 ar
  92   45   46 1
  93   45   51 ar
  94   46   47 1
  95   46  118 1
  96   47  119 1
  97   48   49 ar
  98   48  120 1
  99   49   50 ar
 100   49  121 1
 101   50   51 ar
 102   50  122 1
 103   51  123 1
 104   52   70 am
 105   52  124 1
 106   53   54 1
 107   53  125 1
 108   53  126 1
 109   54   55 ar
 110   54   59 ar
 111   55   56 ar
 112   55  127 1
 113   56   57 ar
 114   56  128 1
 115   57   58 ar
 116   57   72 1
 117   58   59 ar
 118   58  129 1
 119   59  130 1
 120   60   61 2
 121   60   68 am
 122   62   63 1
 123   62  131 1
 124   62  132 1
 125   63   64 1
 126   63  133 1
 127   63  134 1
 128   64   65 1
 129   64  135 1
 130   65   66 1
 131   65   67 2
 132   66  136 1
 133   66  137 1
 134   67  138 1
 135   68   69 1
 136   68  139 1
 137   69   70 1
 138   69   74 1
 139   69  140 1
 140   70   71 2
 141   72   73 3
 142   74   75 am
 143   74   76 2
 144   75  141 1
 145   75  142 1

#	End of record

