#	Name: ASD00843567
#	Creating user name:	WinNT
#	Creation time:	15. 06. 2019 18:47

#	Modifying user name:	WinNT
#	Modification time:	15. 06. 2019 18:47

#	Program:	/corina/corina34_cracker 3.40 0067  02.08.2006

@<TRIPOS>MOLECULE
ASD00843567
  99  104    0    0    0
SMALL
NO_CHARGES


@<TRIPOS>ATOM
   1 F1             5.5634    -2.4348    -2.0439 F       
   2 N2             0.7676     1.0304    -0.2479 N.ar    
   3 C3             0.9572    -0.2494    -0.5217 C.ar    
   4 C4             0.8517    -1.2100     0.4763 C.ar    
   5 C5             0.5446    -0.8108     1.7652 C.ar    
   6 C6             0.3531     0.5420     2.0114 C.ar    
   7 C7             0.4737     1.4415     0.9712 C.ar    
   8 C8             1.0682    -2.6673     0.1594 C.3     
   9 C9             0.7613    -3.5241     1.3690 C.2     
  10 C10            0.2035    -3.0900    -1.0299 C.3     
  11 C11           -1.2383    -2.7550    -0.7469 C.2     
  12 N12           -2.2006    -3.1360    -1.6102 N.am    
  13 O13           -1.5327    -2.1426     0.2576 O.2     
  14 C14           -3.5954    -2.7211    -1.4073 C.3     
  15 C15           -4.4863    -3.9673    -1.4130 C.3     
  16 C16           -4.2463    -4.7552    -2.7029 C.3     
  17 C17           -2.7849    -5.2058    -2.7629 C.3     
  18 C18           -1.8738    -3.9690    -2.7755 C.3     
  19 C19           -5.1596    -5.9824    -2.7280 C.3     
  20 C20           -6.6222    -5.5330    -2.6697 C.3     
  21 C21           -7.5318    -6.7607    -2.7565 C.3     
  22 N22           -7.2708    -7.4770    -4.0116 N.3     
  23 C23           -5.8850    -7.9594    -4.0693 C.3     
  24 C24           -4.9262    -6.7675    -4.0217 C.3     
  25 C25           -8.2210    -8.5824    -4.1942 C.3     
  26 O26           -0.3075    -3.6137     1.9353 O.2     
  27 N27            1.8942    -4.1671     1.6975 N.am    
  28 C28            2.5291    -2.9367    -0.1221 C.ar    
  29 C29            2.9515    -3.8454     0.8429 C.ar    
  30 C30            3.3961    -2.4656    -1.0832 C.ar    
  31 C31            4.7117    -2.8949    -1.1016 C.ar    
  32 C32            5.1541    -3.8082    -0.1392 C.ar    
  33 C33            4.2711    -4.2816     0.8309 C.ar    
  34 C34            1.6339    -6.8264     2.3568 C.ar    
  35 C35            0.3552    -7.1010     1.8936 C.ar    
  36 C36            2.6046    -7.8098     2.3333 C.ar    
  37 C37            2.3048    -9.0682     1.8483 C.ar    
  38 C38            1.0271    -9.3479     1.3838 C.ar    
  39 C39            0.0516    -8.3634     1.4068 C.ar    
  40 O40            0.7326   -10.5860     0.9073 O.3     
  41 O41           -0.5991    -6.1337     1.9173 O.3     
  42 C42           -1.8932    -6.4868     1.4248 C.3     
  43 C43            1.7863   -11.5513     0.9140 C.3     
  44 C44           -8.0839    -9.1439    -5.6108 C.3     
  45 C45           -9.0736   -10.2951    -5.8011 C.3     
  46 C46            6.5136    -4.2580    -0.1505 C.1     
  47 N47            7.5921    -4.6148    -0.1595 N.1     
  48 O48            1.2573    -0.6280    -1.7896 O.3     
  49 C49            1.2998     0.4005    -2.7808 C.3     
  50 C50            1.7529    -0.1956    -4.1151 C.3     
  51 F51            2.9878    -0.8311    -3.9466 F       
  52 F52            0.8058    -1.1263    -4.5557 F       
  53 S53            2.0225    -5.2205     2.9688 S.o2    
  54 O54            3.3969    -5.2498     3.3285 O.2     
  55 O55            0.9877    -4.8772     3.8803 O.2     
  56 H56            0.4557    -1.5351     2.5613 H       
  57 H57            0.1119     0.8869     3.0060 H       
  58 H58            0.3260     2.4950     1.1575 H       
  59 H59            0.5311    -2.5594    -1.9240 H       
  60 H60            0.3028    -4.1639    -1.1879 H       
  61 H61           -3.6887    -2.2096    -0.4493 H       
  62 H62           -3.8983    -2.0516    -2.2123 H       
  63 H63           -4.2427    -4.5926    -0.5541 H       
  64 H64           -5.5327    -3.6667    -1.3597 H       
  65 H65           -4.4664    -4.1213    -3.5618 H       
  66 H66           -2.5574    -5.8195    -1.8912 H       
  67 H67           -2.6204    -5.7868    -3.6704 H       
  68 H68           -2.0377    -3.4038    -3.6930 H       
  69 H69           -0.8314    -4.2825    -2.7183 H       
  70 H70           -4.9393    -6.6180    -1.8703 H       
  71 H71           -6.8051    -5.0102    -1.7309 H       
  72 H72           -6.8313    -4.8653    -3.5055 H       
  73 H73           -7.3318    -7.4213    -1.9129 H       
  74 H74           -8.5741    -6.4430    -2.7297 H       
  75 H75           -5.6927    -8.6144    -3.2196 H       
  76 H76           -5.7313    -8.5123    -4.9960 H       
  77 H77           -5.1087    -6.1192    -4.8787 H       
  78 H78           -3.8975    -7.1267    -4.0489 H       
  79 H79           -8.0077    -9.3683    -3.4697 H       
  80 H80           -9.2369    -8.2166    -4.0450 H       
  81 H81            3.0486    -1.7604    -1.8237 H       
  82 H82            4.6131    -4.9869     1.5738 H       
  83 H83            3.5994    -7.5941     2.6943 H       
  84 H84            3.0652    -9.8348     1.8303 H       
  85 H85           -0.9432    -8.5791     1.0461 H       
  86 H86           -1.8137    -6.7942     0.3821 H       
  87 H87           -2.2951    -7.3094     2.0164 H       
  88 H88           -2.5579    -5.6263     1.5002 H       
  89 H89            2.6130   -11.1909     0.3018 H       
  90 H90            2.1314   -11.7054     1.9363 H       
  91 H91            1.4182   -12.4938     0.5088 H       
  92 H92           -8.2972    -8.3579    -6.3354 H       
  93 H93           -7.0680    -9.5096    -5.7600 H       
  94 H94           -8.9760   -10.6951    -6.8103 H       
  95 H95           -8.8603   -11.0810    -5.0765 H       
  96 H96          -10.0895    -9.9293    -5.6519 H       
  97 H97            0.3070     0.8356    -2.8957 H       
  98 H98            2.0021     1.1745    -2.4715 H       
  99 H99            1.8514     0.5999    -4.8537 H       
@<TRIPOS>BOND
   1    1   31 1
   2    2    3 ar
   3    2    7 ar
   4    3    4 ar
   5    3   48 1
   6    4    5 ar
   7    4    8 1
   8    5    6 ar
   9    5   56 1
  10    6    7 ar
  11    6   57 1
  12    7   58 1
  13    8    9 1
  14    8   10 1
  15    8   28 1
  16    9   26 2
  17    9   27 am
  18   10   11 1
  19   10   59 1
  20   10   60 1
  21   11   12 am
  22   11   13 2
  23   12   14 1
  24   12   18 1
  25   14   15 1
  26   14   61 1
  27   14   62 1
  28   15   16 1
  29   15   63 1
  30   15   64 1
  31   16   17 1
  32   16   19 1
  33   16   65 1
  34   17   18 1
  35   17   66 1
  36   17   67 1
  37   18   68 1
  38   18   69 1
  39   19   20 1
  40   19   24 1
  41   19   70 1
  42   20   21 1
  43   20   71 1
  44   20   72 1
  45   21   22 1
  46   21   73 1
  47   21   74 1
  48   22   23 1
  49   22   25 1
  50   23   24 1
  51   23   75 1
  52   23   76 1
  53   24   77 1
  54   24   78 1
  55   25   44 1
  56   25   79 1
  57   25   80 1
  58   27   53 am
  59   27   29 1
  60   28   29 ar
  61   28   30 ar
  62   29   33 ar
  63   30   31 ar
  64   30   81 1
  65   31   32 ar
  66   32   33 ar
  67   32   46 1
  68   33   82 1
  69   34   35 ar
  70   34   36 ar
  71   34   53 1
  72   35   41 1
  73   35   39 ar
  74   36   37 ar
  75   36   83 1
  76   37   38 ar
  77   37   84 1
  78   38   39 ar
  79   38   40 1
  80   39   85 1
  81   40   43 1
  82   41   42 1
  83   42   86 1
  84   42   87 1
  85   42   88 1
  86   43   89 1
  87   43   90 1
  88   43   91 1
  89   44   45 1
  90   44   92 1
  91   44   93 1
  92   45   94 1
  93   45   95 1
  94   45   96 1
  95   46   47 3
  96   48   49 1
  97   49   50 1
  98   49   97 1
  99   49   98 1
 100   50   51 1
 101   50   52 1
 102   50   99 1
 103   53   54 2
 104   53   55 2

#	End of record

