#	Name: ASD05430345
#	Creating user name:	WinNT
#	Creation time:	15. 06. 2019 21:00

#	Modifying user name:	WinNT
#	Modification time:	15. 06. 2019 21:00

#	Program:	/corina/corina34_cracker 3.40 0067  02.08.2006

@<TRIPOS>MOLECULE
ASD05430345
  58   62    0    0    0
SMALL
NO_CHARGES


@<TRIPOS>ATOM
   1 C1            -0.0168     1.3911     0.0097 C.ar    
   2 C2             0.0021    -0.0041     0.0020 C.ar    
   3 C3            -1.1897    -0.7190     0.0096 C.ar    
   4 C4            -2.3954    -0.0542     0.0246 C.ar    
   5 C5            -2.4227     1.3458     0.0324 C.ar    
   6 C6            -1.2220     2.0655     0.0306 C.ar    
   7 C7            -4.8671     1.3600     0.0549 C.2     
   8 C8            -3.7079     2.0574     0.0480 C.2     
   9 N9            -7.3164     1.4325     0.0777 N.pl3   
  10 C10           -6.1051     2.0455     0.0699 C.2     
  11 C11           -9.0030     2.3990     1.6049 C.ar    
  12 C12           -9.9759     3.3156     1.9575 C.ar    
  13 C13           -8.6577     1.3851     2.4790 C.ar    
  14 C14           -9.2854     1.2865     3.7063 C.ar    
  15 C15          -10.2600     2.2039     4.0605 C.ar    
  16 C16          -10.6046     3.2193     3.1844 C.ar    
  17 F17          -10.8746     2.1083     5.2598 F       
  18 O18            1.1512     2.0867     0.0023 O.3     
  19 C19            1.0572     3.5126     0.0108 C.3     
  20 C20            1.6001    -1.7059     0.8217 C.2     
  21 N21            1.2247    -0.6855    -0.0138 N.pl3   
  22 C22            2.8457    -2.0677     0.4601 C.2     
  23 N23            3.2254    -1.2932    -0.5671 N.2     
  24 C24            2.2635    -0.4613    -0.8604 C.2     
  25 C25            3.6707    -3.1548     1.0994 C.3     
  26 C26           -8.3225     2.5014     0.2642 C.3     
  27 C27           -7.4942     3.7609     0.1552 C.2     
  28 N28           -6.2254     3.3642     0.0785 N.2     
  29 C29           -7.6653     0.0254    -0.1237 C.3     
  30 C30           -8.7074    -0.0277    -1.2525 C.3     
  31 C31           -9.8413     0.9536    -0.9557 C.3     
  32 C32           -9.3120     2.3903    -0.8996 C.3     
  33 O33           -7.9037     4.9054     0.1404 O.2     
  34 H34           -1.1701    -1.7988     0.0032 H       
  35 H35           -3.3199    -0.6125     0.0301 H       
  36 H36           -1.2380     3.1453     0.0365 H       
  37 H37           -4.8478     0.2802     0.0489 H       
  38 H38           -3.7272     3.1372     0.0540 H       
  39 H39          -10.2446     4.1074     1.2740 H       
  40 H40           -7.8975     0.6695     2.2025 H       
  41 H41           -9.0160     0.4939     4.3887 H       
  42 H42          -11.3644     3.9357     3.4598 H       
  43 H43            0.5121     3.8461    -0.8722 H       
  44 H44            0.5291     3.8365     0.9076 H       
  45 H45            2.0587     3.9428     0.0036 H       
  46 H46            1.0116    -2.1340     1.6196 H       
  47 H47            2.2888     0.2807    -1.6448 H       
  48 H48            3.4793    -4.1012     0.5937 H       
  49 H49            4.7284    -2.9052     1.0151 H       
  50 H50            3.4012    -3.2441     2.1517 H       
  51 H51           -6.7783    -0.5395    -0.4104 H       
  52 H52           -8.0889    -0.3866     0.7922 H       
  53 H53           -8.2332     0.2410    -2.1964 H       
  54 H54           -9.1116    -1.0374    -1.3254 H       
  55 H55          -10.5952     0.8789    -1.7394 H       
  56 H56          -10.2941     0.7000     0.0028 H       
  57 H57          -10.1413     3.0799    -0.7419 H       
  58 H58           -8.8057     2.6305    -1.8345 H       
@<TRIPOS>BOND
   1    1    2 ar
   2    1   18 1
   3    1    6 ar
   4    2    3 ar
   5    2   21 1
   6    3    4 ar
   7    3   34 1
   8    4    5 ar
   9    4   35 1
  10    5    6 ar
  11    5    8 1
  12    6   36 1
  13    7    8 2
  14    7   10 1
  15    7   37 1
  16    8   38 1
  17    9   10 1
  18    9   26 1
  19    9   29 1
  20   10   28 2
  21   11   12 ar
  22   11   13 ar
  23   11   26 1
  24   12   16 ar
  25   12   39 1
  26   13   14 ar
  27   13   40 1
  28   14   15 ar
  29   14   41 1
  30   15   16 ar
  31   15   17 1
  32   16   42 1
  33   18   19 1
  34   19   43 1
  35   19   44 1
  36   19   45 1
  37   20   21 1
  38   20   22 2
  39   20   46 1
  40   21   24 1
  41   22   23 1
  42   22   25 1
  43   23   24 2
  44   24   47 1
  45   25   48 1
  46   25   49 1
  47   25   50 1
  48   26   27 1
  49   26   32 1
  50   27   28 1
  51   27   33 2
  52   29   30 1
  53   29   51 1
  54   29   52 1
  55   30   31 1
  56   30   53 1
  57   30   54 1
  58   31   32 1
  59   31   55 1
  60   31   56 1
  61   32   57 1
  62   32   58 1

#	End of record

