#	Name: ASD09720053
#	Creating user name:	WinNT
#	Creation time:	15. 06. 2019 21:22

#	Modifying user name:	WinNT
#	Modification time:	15. 06. 2019 21:22

#	Program:	/corina/corina34_cracker 3.40 0067  02.08.2006

@<TRIPOS>MOLECULE
ASD09720053
  54   55    0    0    0
SMALL
NO_CHARGES


@<TRIPOS>ATOM
   1 C1            -0.0025     1.4721     0.0321 C.ar    
   2 C2             0.0021    -0.0041     0.0020 C.2     
   3 N3             0.9221    -0.6347    -0.6526 N.2     
   4 C4            -1.0653    -0.7759     0.7342 C.3     
   5 O5             1.8462     0.0862    -1.4472 O.3     
   6 S6            -0.7881    -2.5543     0.5080 S.3     
   7 C7            -2.1101    -3.2804     1.4190 C.ar    
   8 C8            -2.2358    -4.6631     1.4817 C.ar    
   9 C9            -3.2731    -5.2286     2.1965 C.ar    
  10 C10           -4.1865    -4.4208     2.8491 C.ar    
  11 C11           -4.0648    -3.0445     2.7886 C.ar    
  12 C12           -3.0262    -2.4720     2.0812 C.ar    
  13 C13            1.2020     2.1776     0.0055 C.ar    
  14 C14            1.1905     3.5568     0.0334 C.ar    
  15 C15           -0.0110     4.2408     0.0874 C.ar    
  16 C16           -1.2082     3.5478     0.1140 C.ar    
  17 C17           -1.2114     2.1687     0.0813 C.ar    
  18 C18           -2.5119     4.3014     0.1733 C.3     
  19 C19           -2.6344     5.2061    -1.0544 C.3     
  20 C20           -3.6750     3.3076     0.1926 C.3     
  21 C21           -2.5499     5.1556     1.4421 C.3     
  22 C22            2.4895     4.3202     0.0053 C.3     
  23 C23            3.6588     3.3351    -0.0532 C.3     
  24 C24            2.5228     5.2251    -1.2280 C.3     
  25 C25            2.6059     5.1754     1.2687 C.3     
  26 H26           -1.0247    -0.5340     1.7962 H       
  27 H27           -2.0444    -0.5075     0.3375 H       
  28 H28            2.4956    -0.4706    -1.8980 H       
  29 H29           -1.5233    -5.2944     0.9717 H       
  30 H30           -3.3714    -6.3030     2.2457 H       
  31 H31           -4.9970    -4.8659     3.4072 H       
  32 H32           -4.7801    -2.4168     3.2991 H       
  33 H33           -2.9318    -1.3972     2.0343 H       
  34 H34            2.1405     1.6449    -0.0363 H       
  35 H35           -0.0143     5.3206     0.1094 H       
  36 H36           -2.1466     1.6289     0.1020 H       
  37 H37           -2.6074     4.5976    -1.9583 H       
  38 H38           -3.5774     5.7512    -1.0115 H       
  39 H39           -1.8058     5.9141    -1.0682 H       
  40 H40           -3.5877     2.6631     1.0673 H       
  41 H41           -4.6180     3.8527     0.2356 H       
  42 H42           -3.6480     2.6990    -0.7113 H       
  43 H43           -1.7213     5.8636     1.4284 H       
  44 H44           -3.4928     5.7007     1.4851 H       
  45 H45           -2.4626     4.5111     2.3168 H       
  46 H46            3.5758     2.7259    -0.9532 H       
  47 H47            4.5984     3.8872    -0.0735 H       
  48 H48            3.6350     2.6905     0.8254 H       
  49 H49            1.6898     5.9269    -1.1863 H       
  50 H50            3.4624     5.7772    -1.2482 H       
  51 H51            2.4399     4.6158    -2.1280 H       
  52 H52            2.5822     4.5307     2.1473 H       
  53 H53            3.5455     5.7275     1.2484 H       
  54 H54            1.7729     5.8772     1.3103 H       
@<TRIPOS>BOND
   1    1    2 1
   2    1   13 ar
   3    1   17 ar
   4    2    3 2
   5    2    4 1
   6    3    5 1
   7    4    6 1
   8    4   26 1
   9    4   27 1
  10    5   28 1
  11    6    7 1
  12    7    8 ar
  13    7   12 ar
  14    8    9 ar
  15    8   29 1
  16    9   10 ar
  17    9   30 1
  18   10   11 ar
  19   10   31 1
  20   11   12 ar
  21   11   32 1
  22   12   33 1
  23   13   14 ar
  24   13   34 1
  25   14   15 ar
  26   14   22 1
  27   15   16 ar
  28   15   35 1
  29   16   17 ar
  30   16   18 1
  31   17   36 1
  32   18   19 1
  33   18   20 1
  34   18   21 1
  35   19   37 1
  36   19   38 1
  37   19   39 1
  38   20   40 1
  39   20   41 1
  40   20   42 1
  41   21   43 1
  42   21   44 1
  43   21   45 1
  44   22   23 1
  45   22   24 1
  46   22   25 1
  47   23   46 1
  48   23   47 1
  49   23   48 1
  50   24   49 1
  51   24   50 1
  52   24   51 1
  53   25   52 1
  54   25   53 1
  55   25   54 1

#	End of record

