#	Name: ASD01900144
#	Creating user name:	WinNT
#	Creation time:	15. 06. 2019 19:51

#	Modifying user name:	WinNT
#	Modification time:	15. 06. 2019 19:51

#	Program:	/corina/corina34_cracker 3.40 0067  02.08.2006

@<TRIPOS>MOLECULE
ASD01900144
  40   42    0    0    0
SMALL
NO_CHARGES


@<TRIPOS>ATOM
   1 C1            -0.0837     1.2230     0.5376 C.2     
   2 N2             0.0056     0.0102    -0.0434 N.am    
   3 O3             0.8948     1.7195     1.0627 O.2     
   4 C4             1.2469    -0.6300    -0.1400 C.ar    
   5 C5             1.3252    -2.0119    -0.0308 C.ar    
   6 C6             2.5532    -2.6444    -0.1268 C.ar    
   7 C7             3.7078    -1.8923    -0.3329 C.ar    
   8 C8             3.6252    -0.5116    -0.4414 C.ar    
   9 C9             2.3987     0.1172    -0.3506 C.ar    
  10 N10            4.9525    -2.5302    -0.4300 N.am    
  11 C11            6.0805    -1.8562    -0.1302 C.2     
  12 O12            2.6323    -3.9976    -0.0198 O.3     
  13 C13            1.4083    -4.7043     0.1913 C.3     
  14 C14            7.3983    -2.4869    -0.3496 C.ar    
  15 O15            6.0134    -0.7290     0.3207 O.2     
  16 C16            8.5696    -1.7912    -0.0400 C.ar    
  17 C17            9.7982    -2.3877    -0.2479 C.ar    
  18 C18            9.8694    -3.6696    -0.7614 C.ar    
  19 C19            8.7123    -4.3640    -1.0701 C.ar    
  20 C20            7.4790    -3.7834    -0.8619 C.ar    
  21 Cl21           8.4815    -0.1813     0.6036 Cl      
  22 S22           -3.1459     3.6672     0.8764 S.3     
  23 C23           -3.5148     2.2207     0.0470 C.2     
  24 N24           -2.4755     1.4665    -0.0303 N.2     
  25 C25           -1.3644     1.9497     0.5316 C.2     
  26 C26           -1.5254     3.1686     1.0944 C.2     
  27 H27           -0.7901    -0.4191    -0.3947 H       
  28 H28            0.4291    -2.5930     0.1292 H       
  29 H29            4.5201     0.0717    -0.6007 H       
  30 H30            2.3362     1.1921    -0.4353 H       
  31 H31            5.0019    -3.4567    -0.7129 H       
  32 H32            1.6127    -5.7728     0.2584 H       
  33 H33            0.9473    -4.3636     1.1184 H       
  34 H34            0.7314    -4.5154    -0.6419 H       
  35 H35           10.7049    -1.8517    -0.0093 H       
  36 H36           10.8323    -4.1312    -0.9228 H       
  37 H37            8.7756    -5.3649    -1.4708 H       
  38 H38            6.5774    -4.3268    -1.1034 H       
  39 H39           -4.4858     1.9733    -0.3561 H       
  40 H40           -0.7561     3.7345     1.5988 H       
@<TRIPOS>BOND
   1    1    2 am
   2    1    3 2
   3    1   25 1
   4    2    4 1
   5    2   27 1
   6    4    5 ar
   7    4    9 ar
   8    5    6 ar
   9    5   28 1
  10    6    7 ar
  11    6   12 1
  12    7    8 ar
  13    7   10 1
  14    8    9 ar
  15    8   29 1
  16    9   30 1
  17   10   11 am
  18   10   31 1
  19   11   14 1
  20   11   15 2
  21   12   13 1
  22   13   32 1
  23   13   33 1
  24   13   34 1
  25   14   16 ar
  26   14   20 ar
  27   16   17 ar
  28   16   21 1
  29   17   18 ar
  30   17   35 1
  31   18   19 ar
  32   18   36 1
  33   19   20 ar
  34   19   37 1
  35   20   38 1
  36   22   23 1
  37   22   26 1
  38   23   24 2
  39   23   39 1
  40   24   25 1
  41   25   26 2
  42   26   40 1

#	End of record

