#	Name: ASD01813586
#	Creating user name:	WinNT
#	Creation time:	15. 06. 2019 19:30

#	Modifying user name:	WinNT
#	Modification time:	15. 06. 2019 19:30

#	Program:	/corina/corina34_cracker 3.40 0067  02.08.2006

@<TRIPOS>MOLECULE
ASD01813586
  51   54    0    0    0
SMALL
NO_CHARGES


@<TRIPOS>ATOM
   1 C1             3.8196     3.5549    -0.7811 C.ar    
   2 C2             2.8235     2.6199    -1.0172 C.ar    
   3 C3             2.9908     1.3016    -0.6448 C.ar    
   4 C4             4.1715     0.8973    -0.0244 C.ar    
   5 C5             5.1805     1.8461     0.2138 C.ar    
   6 C6             4.9975     3.1775    -0.1681 C.ar    
   7 N7             4.3498    -0.4170     0.3532 N.pl3   
   8 C8             5.4643    -0.8546     0.9526 C.2     
   9 C9             6.5230    -0.0164     1.2386 C.2     
  10 C10            6.4240     1.4056     0.8706 C.2     
  11 O11            7.3312     2.1858     1.1010 O.2     
  12 C12            7.7293    -0.5350     1.8987 C.2     
  13 O13            8.7567     0.2937     2.1728 O.3     
  14 O14            7.8006    -1.7112     2.1975 O.2     
  15 C15            3.2738    -1.3752     0.0877 C.3     
  16 C16            3.3749    -1.8625    -1.3348 C.ar    
  17 N17            2.2938    -2.2938    -1.9522 N.ar    
  18 C18            2.3360    -2.7315    -3.2046 C.ar    
  19 C19            3.5386    -2.7471    -3.9090 C.ar    
  20 C20            4.6896    -2.2996    -3.2844 C.ar    
  21 C21            4.5997    -1.8455    -1.9760 C.ar    
  22 F22            2.0100     0.4032    -0.8813 F       
  23 F23            5.9675     4.0897     0.0605 F       
  24 C24            1.0946    -3.2078    -3.8590 C.ar    
  25 C25           -0.1030    -3.2691    -3.1360 C.ar    
  26 C26           -1.2602    -3.7168    -3.7584 C.ar    
  27 C27           -1.2281    -4.1000    -5.0847 C.ar    
  28 C28           -0.0450    -4.0402    -5.8014 C.ar    
  29 C29            1.1120    -3.5915    -5.1984 C.ar    
  30 N30           -0.1328    -2.8828    -1.7974 N.am    
  31 S31           -1.1108    -3.6822    -0.7265 S.o2    
  32 C32           -0.5136    -5.3948    -0.7596 C.3     
  33 O33           -0.8245    -3.0784     0.5276 O.2     
  34 O34           -2.4067    -3.5948    -1.3028 O.2     
  35 H35            3.6753     4.5820    -1.0822 H       
  36 H36            1.9062     2.9267    -1.4976 H       
  37 H37            5.5372    -1.8980     1.2216 H       
  38 H38            9.5288    -0.0933     2.6077 H       
  39 H39            3.3645    -2.2213     0.7689 H       
  40 H40            2.3096    -0.8895     0.2378 H       
  41 H41            3.5718    -3.1038    -4.9279 H       
  42 H42            5.6359    -2.3001    -3.8047 H       
  43 H43            5.4797    -1.4895    -1.4610 H       
  44 H44           -2.1863    -3.7659    -3.2048 H       
  45 H45           -2.1303    -4.4485    -5.5652 H       
  46 H46           -0.0288    -4.3418    -6.8383 H       
  47 H47            2.0324    -3.5463    -5.7616 H       
  48 H48            0.4192    -2.1456    -1.4929 H       
  49 H49            0.5322    -5.4209    -0.4533 H       
  50 H50           -1.1079    -6.0001    -0.0751 H       
  51 H51           -0.6062    -5.7924    -1.7703 H       
@<TRIPOS>BOND
   1    1    2 ar
   2    1    6 ar
   3    1   35 1
   4    2    3 ar
   5    2   36 1
   6    3    4 ar
   7    3   22 1
   8    4    5 ar
   9    4    7 1
  10    5    6 ar
  11    5   10 1
  12    6   23 1
  13    7    8 1
  14    7   15 1
  15    8    9 2
  16    8   37 1
  17    9   10 1
  18    9   12 1
  19   10   11 2
  20   12   13 1
  21   12   14 2
  22   13   38 1
  23   15   16 1
  24   15   39 1
  25   15   40 1
  26   16   17 ar
  27   16   21 ar
  28   17   18 ar
  29   18   19 ar
  30   18   24 1
  31   19   20 ar
  32   19   41 1
  33   20   21 ar
  34   20   42 1
  35   21   43 1
  36   24   25 ar
  37   24   29 ar
  38   25   26 ar
  39   25   30 1
  40   26   27 ar
  41   26   44 1
  42   27   28 ar
  43   27   45 1
  44   28   29 ar
  45   28   46 1
  46   29   47 1
  47   30   31 am
  48   30   48 1
  49   31   32 1
  50   31   33 2
  51   31   34 2
  52   32   49 1
  53   32   50 1
  54   32   51 1

#	End of record

