#	Name: ASD01913876
#	Creating user name:	WinNT
#	Creation time:	15. 06. 2019 20:02

#	Modifying user name:	WinNT
#	Modification time:	15. 06. 2019 20:02

#	Program:	/corina/corina34_cracker 3.40 0067  02.08.2006

@<TRIPOS>MOLECULE
ASD01913876
  42   45    0    0    0
SMALL
NO_CHARGES


@<TRIPOS>ATOM
   1 C1            -0.0193     1.4278    -0.0136 C.ar    
   2 C2             0.0007    -0.0040    -0.0145 C.1     
   3 C3             0.0171    -1.1779    -0.0152 C.1     
   4 C4             0.0371    -2.6098    -0.0161 C.ar    
   5 C5            -1.1519    -3.3387     0.1363 C.ar    
   6 C6             0.1560    -5.3344    -0.0290 C.ar    
   7 N7             1.2607    -4.6185    -0.1761 N.ar    
   8 C8             1.2398    -3.3019    -0.1745 C.ar    
   9 C9            -1.0814    -4.7173     0.1284 C.ar    
  10 C10            1.1694     2.1467    -0.1659 C.ar    
  11 C11            1.1423     3.5256    -0.1641 C.ar    
  12 C12           -1.2282     2.1130     0.1337 C.ar    
  13 C13           -0.0579     4.1973    -0.0114 C.ar    
  14 C14           -1.2397     3.4922     0.1337 C.ar    
  15 N15            0.2331    -6.7251    -0.0380 N.am    
  16 C16            0.1542    -7.3570    -1.2167 C.2     
  17 O17            0.1107    -8.7064    -1.3428 O.3     
  18 C18           -0.1756    -9.3905    -0.1061 C.3     
  19 C19            0.8480    -8.8407     0.9330 C.3     
  20 C20            0.4029    -7.4217     1.2473 C.3     
  21 O21            0.1192    -6.6843    -2.2279 O.2     
  22 C22            0.0817   -10.8938    -0.0846 C.3     
  23 C23            0.5857   -11.2067     1.3454 C.3     
  24 C24            0.6854    -9.8440     2.0819 C.3     
  25 H25           -1.1925    -9.1673     0.2168 H       
  26 H26            1.8616    -8.8489     0.5322 H       
  27 H27           -2.0989    -2.8337     0.2571 H       
  28 H28            2.1612    -2.7521    -0.2971 H       
  29 H29           -1.9766    -5.3104     0.2435 H       
  30 H30            2.1069     1.6238    -0.2845 H       
  31 H31            2.0601     4.0825    -0.2817 H       
  32 H32           -2.1514     1.5640     0.2470 H       
  33 H33           -0.0729     5.2772    -0.0100 H       
  34 H34           -2.1727     4.0231     0.2520 H       
  35 H35            1.1598    -6.9197     1.8499 H       
  36 H36           -0.5470    -7.4400     1.7816 H       
  37 H37           -0.8412   -11.4374    -0.2866 H       
  38 H38            0.8433   -11.1566    -0.8188 H       
  39 H39           -0.1226   -11.8579     1.8577 H       
  40 H40            1.5662   -11.6808     1.3013 H       
  41 H41            1.5558    -9.8232     2.7377 H       
  42 H42           -0.2266    -9.6419     2.6437 H       
@<TRIPOS>BOND
   1    1    2 1
   2    1   10 ar
   3    1   12 ar
   4    2    3 3
   5    3    4 1
   6    4    5 ar
   7    4    8 ar
   8    5    9 ar
   9    5   27 1
  10    6    7 ar
  11    6   15 1
  12    6    9 ar
  13    7    8 ar
  14    8   28 1
  15    9   29 1
  16   10   11 ar
  17   10   30 1
  18   11   13 ar
  19   11   31 1
  20   12   14 ar
  21   12   32 1
  22   13   14 ar
  23   13   33 1
  24   14   34 1
  25   15   16 am
  26   15   20 1
  27   16   17 1
  28   16   21 2
  29   17   18 1
  30   18   19 1
  31   18   22 1
  32   18   25 1
  33   19   20 1
  34   19   26 1
  35   19   24 1
  36   20   35 1
  37   20   36 1
  38   22   23 1
  39   22   37 1
  40   22   38 1
  41   23   24 1
  42   23   39 1
  43   23   40 1
  44   24   41 1
  45   24   42 1

#	End of record

