#	Name: ASD07300235
#	Creating user name:	WinNT
#	Creation time:	15. 06. 2019 21:09

#	Modifying user name:	WinNT
#	Modification time:	15. 06. 2019 21:09

#	Program:	/corina/corina34_cracker 3.40 0067  02.08.2006

@<TRIPOS>MOLECULE
ASD07300235
  38   42    0    0    0
SMALL
NO_CHARGES


@<TRIPOS>ATOM
   1 N1            -0.3933     1.0455     1.2957 N.am    
   2 C2            -0.2881    -0.2910     1.1596 C.2     
   3 N3             0.9766    -0.6154     0.8292 N.am    
   4 C4             1.7225     0.5469     0.7466 C.ar    
   5 N5             2.9891     0.8161     0.4641 N.ar    
   6 C6             3.4233     2.0612     0.4623 C.ar    
   7 N7             2.6339     3.0809     0.7362 N.ar    
   8 C8             1.3537     2.8969     1.0290 C.ar    
   9 C9             0.8536     1.6063     1.0429 C.ar    
  10 O10           -1.1977    -1.0844     1.3121 O.2     
  11 C11            1.4573    -1.9147     0.6066 C.ar    
  12 C12            0.6005    -3.0010     0.7221 C.ar    
  13 C13            1.0732    -4.2794     0.5031 C.ar    
  14 C14            2.4059    -4.4788     0.1668 C.ar    
  15 C15            3.2627    -3.3918     0.0509 C.ar    
  16 C16            2.7883    -2.1132     0.2653 C.ar    
  17 N17            2.8857    -5.7750    -0.0548 N.pl3   
  18 O18            2.3656    -8.0422    -0.7016 O.3     
  19 C19            2.0447    -6.7444    -0.5554 C.2     
  20 N20            0.8167    -6.5371    -0.9573 N.2     
  21 C21            0.2923    -7.7180    -1.3854 C.ar    
  22 C22            1.2942    -8.6863    -1.2190 C.ar    
  23 C23           -0.9472    -8.0889    -1.9076 C.ar    
  24 C24           -1.1770    -9.4024    -2.2553 C.ar    
  25 C25           -0.1848   -10.3557    -2.0888 C.ar    
  26 C26            1.0465   -10.0019    -1.5739 C.ar    
  27 H27           -1.2002     1.5323     1.5259 H       
  28 H28            4.4604     2.2520     0.2289 H       
  29 H29            0.7137     3.7377     1.2526 H       
  30 H30           -0.4358    -2.8459     0.9836 H       
  31 H31            0.4068    -5.1245     0.5937 H       
  32 H32            4.2992    -3.5465    -0.2103 H       
  33 H33            3.4536    -1.2676     0.1715 H       
  34 H34            3.8102    -5.9906     0.1440 H       
  35 H35           -1.7236    -7.3496    -2.0384 H       
  36 H36           -2.1361    -9.6908    -2.6596 H       
  37 H37           -0.3760   -11.3824    -2.3640 H       
  38 H38            1.8151   -10.7501    -1.4476 H       
@<TRIPOS>BOND
   1    1    2 am
   2    1    9 1
   3    1   27 1
   4    2    3 am
   5    2   10 2
   6    3    4 1
   7    3   11 1
   8    4    5 ar
   9    4    9 ar
  10    5    6 ar
  11    6    7 ar
  12    6   28 1
  13    7    8 ar
  14    8    9 ar
  15    8   29 1
  16   11   12 ar
  17   11   16 ar
  18   12   13 ar
  19   12   30 1
  20   13   14 ar
  21   13   31 1
  22   14   15 ar
  23   14   17 1
  24   15   16 ar
  25   15   32 1
  26   16   33 1
  27   17   19 1
  28   17   34 1
  29   18   19 1
  30   18   22 1
  31   19   20 2
  32   20   21 1
  33   21   22 ar
  34   21   23 ar
  35   22   26 ar
  36   23   24 ar
  37   23   35 1
  38   24   25 ar
  39   24   36 1
  40   25   26 ar
  41   25   37 1
  42   26   38 1

#	End of record

