#	Name: ASD02038814
#	Creating user name:	WinNT
#	Creation time:	15. 06. 2019 20:17

#	Modifying user name:	WinNT
#	Modification time:	15. 06. 2019 20:17

#	Program:	/corina/corina34_cracker 3.40 0067  02.08.2006

@<TRIPOS>MOLECULE
ASD02038814
  49   52    0    0    0
SMALL
NO_CHARGES


@<TRIPOS>ATOM
   1 C1            -1.2821    -0.8497     0.4638 C.2     
   2 C2            -0.0598    -0.0336     0.3009 C.2     
   3 N3             1.1374    -0.6350     0.1537 N.am    
   4 C4             1.2415    -2.0931     0.2506 C.3     
   5 C5             1.2139    -2.6917    -1.1321 C.ar    
   6 C6             2.3345     0.1694    -0.1032 C.3     
   7 O7            -0.1347     1.1796     0.2998 O.2     
   8 N8            -1.3387    -2.1936     0.4938 N.2     
   9 C9            -2.5944    -2.5262     0.6529 C.2     
  10 N10           -3.3115    -1.3893     0.7210 N.pl3   
  11 N11           -2.5054    -0.3902     0.6107 N.2     
  12 C12            2.3971    -3.0136    -1.7684 C.ar    
  13 C13            2.1239     1.0136    -1.3638 C.3     
  14 C14            3.3473     1.9081    -1.5799 C.3     
  15 O15            3.5469     2.7268    -0.4258 O.3     
  16 C16            3.7959     1.9925     0.7746 C.3     
  17 C17            2.5904     1.1013     1.0852 C.3     
  18 C18           -4.7633    -1.3024     0.8968 C.3     
  19 C19            0.0043    -2.9234    -1.7603 C.ar    
  20 C20           -0.0249    -3.4734    -3.0289 C.ar    
  21 C21            1.1548    -3.7924    -3.6721 C.ar    
  22 C22            2.3709    -3.5653    -3.0418 C.ar    
  23 N23            3.5705    -3.8881    -3.6924 N.pl3   
  24 C24            3.6978    -4.4311    -4.9448 C.2     
  25 C25            5.0167    -4.5764    -5.1746 C.2     
  26 N26            5.6808    -4.1361    -4.0957 N.2     
  27 C27            4.8260    -3.7165    -3.2031 C.2     
  28 H28            2.1770    -2.3586     0.7429 H       
  29 H29            0.4033    -2.4794     0.8306 H       
  30 H30            3.1924    -0.4882    -0.2439 H       
  31 H31           -2.9846    -3.5311     0.7175 H       
  32 H32            3.3415    -2.8358    -1.2757 H       
  33 H33            1.9960     0.3572    -2.2246 H       
  34 H34            1.2359     1.6340    -1.2426 H       
  35 H35            4.2281     1.2866    -1.7414 H       
  36 H36            3.1847     2.5420    -2.4516 H       
  37 H37            4.6825     1.3721     0.6439 H       
  38 H38            3.9564     2.6872     1.5990 H       
  39 H39            1.7119     1.7235     1.2560 H       
  40 H40            2.7962     0.5077     1.9759 H       
  41 H41           -4.9988    -1.2634     1.9604 H       
  42 H42           -5.1351    -0.4014     0.4091 H       
  43 H43           -5.2362    -2.1779     0.4519 H       
  44 H44           -0.9195    -2.6747    -1.2593 H       
  45 H45           -0.9713    -3.6540    -3.5169 H       
  46 H46            1.1313    -4.2223    -4.6625 H       
  47 H47            2.8946    -4.6924    -5.6178 H       
  48 H48            5.4626    -4.9785    -6.0723 H       
  49 H49            5.0749    -3.3072    -2.2351 H       
@<TRIPOS>BOND
   1    1    2 1
   2    1    8 1
   3    1   11 2
   4    2    3 am
   5    2    7 2
   6    3    4 1
   7    3    6 1
   8    4    5 1
   9    4   28 1
  10    4   29 1
  11    5   12 ar
  12    5   19 ar
  13    6   13 1
  14    6   17 1
  15    6   30 1
  16    8    9 2
  17    9   10 1
  18    9   31 1
  19   10   11 1
  20   10   18 1
  21   12   22 ar
  22   12   32 1
  23   13   14 1
  24   13   33 1
  25   13   34 1
  26   14   15 1
  27   14   35 1
  28   14   36 1
  29   15   16 1
  30   16   17 1
  31   16   37 1
  32   16   38 1
  33   17   39 1
  34   17   40 1
  35   18   41 1
  36   18   42 1
  37   18   43 1
  38   19   20 ar
  39   19   44 1
  40   20   21 ar
  41   20   45 1
  42   21   22 ar
  43   21   46 1
  44   22   23 1
  45   23   24 1
  46   23   27 1
  47   24   25 2
  48   24   47 1
  49   25   26 1
  50   25   48 1
  51   26   27 2
  52   27   49 1

#	End of record

