#	Name: ASD01120335
#	Creating user name:	WinNT
#	Creation time:	15. 06. 2019 18:59

#	Modifying user name:	WinNT
#	Modification time:	15. 06. 2019 18:59

#	Program:	/corina/corina34_cracker 3.40 0067  02.08.2006

@<TRIPOS>MOLECULE
ASD01120335
  46   48    0    0    0
SMALL
NO_CHARGES


@<TRIPOS>ATOM
   1 C1            -0.0187     1.5258     0.0104 C.3     
   2 C2             0.0021    -0.0041     0.0020 C.3     
   3 O3             0.6817    -0.4723    -1.1926 O.3     
   4 C4             0.7867    -1.8073    -1.3538 C.2     
   5 O5             0.3226    -2.5590    -0.5182 O.2     
   6 C6             1.4608    -2.3524    -2.5372 C.2     
   7 N7             2.0279    -1.6048    -3.5541 N.pl3   
   8 C8             2.5640    -2.4624    -4.4861 C.ar    
   9 C9             2.3242    -3.7753    -4.0373 C.ar    
  10 C10            1.6342    -3.6745    -2.8085 C.2     
  11 C11            2.7705    -4.8663    -4.8076 C.ar    
  12 C12            3.4391    -4.6341    -5.9957 C.ar    
  13 C13            3.6702    -3.3368    -6.4286 C.ar    
  14 C14            3.2398    -2.2590    -5.6859 C.ar    
  15 N15            3.4964    -0.8820    -6.1651 N.pl3   
  16 O16            4.0873    -0.7027    -7.2149 O.2     
  17 O17            3.1165     0.0716    -5.5095 O.2     
  18 N18            2.5407    -6.1698    -4.3758 N.pl3   
  19 C19            3.4789    -6.8125    -3.5646 C.ar    
  20 C20            4.6419    -6.1518    -3.1880 C.ar    
  21 C21            5.5693    -6.7876    -2.3854 C.ar    
  22 C22            5.3435    -8.0811    -1.9551 C.ar    
  23 C23            4.1837    -8.7464    -2.3284 C.ar    
  24 C24            3.2481    -8.1105    -3.1287 C.ar    
  25 O25            3.9634   -10.0187    -1.9046 O.3     
  26 C26            4.9675   -10.6100    -1.0775 C.3     
  27 C27            1.3150    -6.8674    -4.7722 C.3     
  28 H28            1.0039     1.9031     0.0027 H       
  29 H29           -0.5459     1.8868    -0.8726 H       
  30 H30           -0.5289     1.8773     0.9072 H       
  31 H31            0.5293    -0.3651     0.8851 H       
  32 H32           -1.0205    -0.3814     0.0098 H       
  33 H33            2.0441    -0.6361    -3.6020 H       
  34 H34            1.2988    -4.4992    -2.1972 H       
  35 H35            3.7837    -5.4677    -6.5897 H       
  36 H36            4.1935    -3.1696    -7.3584 H       
  37 H37            4.8210    -5.1409    -3.5233 H       
  38 H38            6.4728    -6.2727    -2.0940 H       
  39 H39            6.0705    -8.5753    -1.3277 H       
  40 H40            2.3452    -8.6266    -3.4201 H       
  41 H41            4.6679   -11.6235    -0.8106 H       
  42 H42            5.9127   -10.6414    -1.6195 H       
  43 H43            5.0879   -10.0162    -0.1714 H       
  44 H44            1.4868    -7.4013    -5.7068 H       
  45 H45            1.0333    -7.5774    -3.9946 H       
  46 H46            0.5127    -6.1424    -4.9101 H       
@<TRIPOS>BOND
   1    1    2 1
   2    1   28 1
   3    1   29 1
   4    1   30 1
   5    2    3 1
   6    2   31 1
   7    2   32 1
   8    3    4 1
   9    4    5 2
  10    4    6 1
  11    6    7 1
  12    6   10 2
  13    7    8 1
  14    7   33 1
  15    8    9 ar
  16    8   14 ar
  17    9   10 1
  18    9   11 ar
  19   10   34 1
  20   11   12 ar
  21   11   18 1
  22   12   13 ar
  23   12   35 1
  24   13   14 ar
  25   13   36 1
  26   14   15 1
  27   15   16 2
  28   15   17 2
  29   18   19 1
  30   18   27 1
  31   19   20 ar
  32   19   24 ar
  33   20   21 ar
  34   20   37 1
  35   21   22 ar
  36   21   38 1
  37   22   23 ar
  38   22   39 1
  39   23   24 ar
  40   23   25 1
  41   24   40 1
  42   25   26 1
  43   26   41 1
  44   26   42 1
  45   26   43 1
  46   27   44 1
  47   27   45 1
  48   27   46 1

#	End of record

