#	Name: ASD01230485
#	Creating user name:	WinNT
#	Creation time:	15. 06. 2019 19:14

#	Modifying user name:	WinNT
#	Modification time:	15. 06. 2019 19:14

#	Program:	/corina/corina34_cracker 3.40 0067  02.08.2006

@<TRIPOS>MOLECULE
ASD01230485
  41   43    0    0    0
SMALL
NO_CHARGES


@<TRIPOS>ATOM
   1 S1            -0.0204     1.6504     0.0111 S.o2    
   2 N2             0.0021    -0.0041     0.0020 N.am    
   3 C3             1.0217    -0.6868    -0.4550 C.2     
   4 N4             2.1682    -0.1522    -0.9707 N.pl3   
   5 C5             2.3935     1.2849    -1.1470 C.3     
   6 C6             1.7502     2.0748    -0.0035 C.3     
   7 C7             0.8934    -2.1613    -0.3942 C.2     
   8 C8             1.9493    -2.9459    -0.8241 C.2     
   9 C9             3.1049    -2.3210    -1.3056 C.2     
  10 C10            3.1897    -0.9794    -1.3642 C.2     
  11 C11           -0.3057    -2.7662     0.1028 C.1     
  12 C12           -1.2888    -3.2621     0.5102 C.1     
  13 C13           -2.4879    -3.8669     1.0071 C.ar    
  14 C14           -2.6019    -5.2593     1.0617 C.ar    
  15 C15           -3.7596    -5.8344     1.5419 C.ar    
  16 C16           -4.8069    -5.0369     1.9692 C.ar    
  17 C17           -4.7015    -3.6579     1.9183 C.ar    
  18 C18           -3.5481    -3.0680     1.4456 C.ar    
  19 C19           -6.0688    -5.6734     2.4922 C.3     
  20 C20           -6.3030    -5.2293     3.9375 C.3     
  21 C21           -7.2545    -5.2410     1.6273 C.3     
  22 O22           -0.6346     2.0065    -1.2198 O.2     
  23 O23           -0.6109     1.9932     1.2573 O.2     
  24 H24            3.4655     1.4816    -1.1612 H       
  25 H25            1.9575     1.6036    -2.0938 H       
  26 H26            1.8744     3.1441    -0.1748 H       
  27 H27            2.2073     1.7940     0.9453 H       
  28 H28            1.8823    -4.0233    -0.7888 H       
  29 H29            3.9393    -2.9229    -1.6341 H       
  30 H30            4.1005    -0.5347    -1.7371 H       
  31 H31           -1.7856    -5.8829     0.7282 H       
  32 H32           -3.8494    -6.9098     1.5844 H       
  33 H33           -5.5230    -3.0422     2.2536 H       
  34 H34           -3.4657    -1.9918     1.4103 H       
  35 H35           -5.9700    -6.7584     2.4570 H       
  36 H36           -7.2157    -5.6897     4.3157 H       
  37 H37           -5.4583    -5.5373     4.5536 H       
  38 H38           -6.4018    -4.1443     3.9727 H       
  39 H39           -7.0877    -5.5574     0.5977 H       
  40 H40           -8.1672    -5.7014     2.0056 H       
  41 H41           -7.3533    -4.1560     1.6625 H       
@<TRIPOS>BOND
   1    1    2 am
   2    1    6 1
   3    1   22 2
   4    1   23 2
   5    2    3 2
   6    3    4 1
   7    3    7 1
   8    4    5 1
   9    4   10 1
  10    5    6 1
  11    5   24 1
  12    5   25 1
  13    6   26 1
  14    6   27 1
  15    7    8 2
  16    7   11 1
  17    8    9 1
  18    8   28 1
  19    9   10 2
  20    9   29 1
  21   10   30 1
  22   11   12 3
  23   12   13 1
  24   13   14 ar
  25   13   18 ar
  26   14   15 ar
  27   14   31 1
  28   15   16 ar
  29   15   32 1
  30   16   17 ar
  31   16   19 1
  32   17   18 ar
  33   17   33 1
  34   18   34 1
  35   19   20 1
  36   19   21 1
  37   19   35 1
  38   20   36 1
  39   20   37 1
  40   20   38 1
  41   21   39 1
  42   21   40 1
  43   21   41 1

#	End of record

