#	Name: ASD03092344
#	Creating user name:	WinNT
#	Creation time:	15. 06. 2019 20:32

#	Modifying user name:	WinNT
#	Modification time:	15. 06. 2019 20:32

#	Program:	/corina/corina34_cracker 3.40 0067  02.08.2006

@<TRIPOS>MOLECULE
ASD03092344
  62   65    0    0    0
SMALL
NO_CHARGES


@<TRIPOS>ATOM
   1 C1             0.0483     1.1789    -1.0724 C.3     
   2 C2             0.0402    -0.3380    -1.2721 C.3     
   3 C3             1.3654     0.4268    -1.2742 C.3     
   4 C4            -0.9789     4.3664    -2.9288 C.2     
   5 C5            -0.4840     3.5120    -1.7904 C.3     
   6 C6            -0.4541     2.0463    -2.2282 C.3     
   7 O7            -1.2782     3.8536    -3.9863 O.2     
   8 N8            -1.0888     5.7005    -2.7719 N.am    
   9 C9            -1.5699     6.5311    -3.8786 C.3     
  10 S10           -2.3058    10.2458    -2.5911 S.3     
  11 C11           -0.6955     9.9838    -3.1015 C.2     
  12 N12           -0.5436     8.7573    -3.5021 N.2     
  13 C13           -1.5993     7.9748    -3.4473 C.2     
  14 C14           -2.7111     8.5742    -2.9722 C.2     
  15 C15           -6.4109     7.9396    -3.0860 C.ar    
  16 C16           -5.1975     8.5674    -3.2659 C.ar    
  17 C17           -4.0333     7.9409    -2.8014 C.ar    
  18 C18           -4.1597     6.6959    -2.1707 C.ar    
  19 C19           -5.4136     6.1413    -2.0331 C.ar    
  20 N20           -6.4849     6.7659    -2.4860 N.ar    
  21 C21           -5.5641     4.8030    -1.3568 C.3     
  22 C22           -7.6716     8.6049    -3.5751 C.3     
  23 N23            0.3028    10.9409    -3.0900 N.3     
  24 C24           -0.2024    12.2230    -2.5779 C.3     
  25 C25            0.9160    13.2668    -2.6383 C.3     
  26 O26            2.0433    12.7938    -1.8963 O.3     
  27 C27            2.5615    11.5473    -2.3686 C.3     
  28 C28            1.4598    10.4860    -2.3054 C.3     
  29 C29            3.7369    11.1164    -1.4890 C.3     
  30 C30            0.4209    14.5817    -2.0326 C.3     
  31 H31           -0.1678     1.5561    -0.0728 H       
  32 H32           -0.1813    -0.9588    -0.4040 H       
  33 H33           -0.3231    -0.7179    -2.2270 H       
  34 H34            1.8739     0.5500    -2.2304 H       
  35 H35            2.0157     0.3092    -0.4074 H       
  36 H36            0.5207     3.8278    -1.5091 H       
  37 H37           -1.1520     3.6225    -0.9362 H       
  38 H38            0.2139     1.9359    -3.0824 H       
  39 H39           -1.4587     1.7306    -2.5094 H       
  40 H40           -0.8494     6.1107    -1.9261 H       
  41 H41           -0.9019     6.4207    -4.7328 H       
  42 H42           -2.5746     6.2154    -4.1598 H       
  43 H43           -5.1445     9.5273    -3.7580 H       
  44 H44           -3.2876     6.1789    -1.7984 H       
  45 H45           -5.7091     4.9510    -0.2866 H       
  46 H46           -6.4266     4.2813    -1.7715 H       
  47 H47           -4.6656     4.2088    -1.5230 H       
  48 H48           -7.8690     8.2988    -4.6024 H       
  49 H49           -8.5076     8.3098    -2.9410 H       
  50 H50           -7.5500     9.6874    -3.5355 H       
  51 H51           -1.0422    12.5536    -3.1890 H       
  52 H52           -0.5292    12.0992    -1.5454 H       
  53 H53            1.2059    13.4299    -3.6763 H       
  54 H54            2.8992    11.6604    -3.3987 H       
  55 H55            1.1595    10.3344    -1.2686 H       
  56 H56            1.8333     9.5487    -2.7176 H       
  57 H57            3.3975    11.0018    -0.4595 H       
  58 H58            4.1313    10.1664    -1.8494 H       
  59 H59            4.5193    11.8742    -1.5313 H       
  60 H60            0.1331    14.4177    -0.9941 H       
  61 H61            1.2175    15.3244    -2.0759 H       
  62 H62           -0.4407    14.9397    -2.5962 H       
@<TRIPOS>BOND
   1    1    2 1
   2    1    3 1
   3    1    6 1
   4    1   31 1
   5    2    3 1
   6    2   32 1
   7    2   33 1
   8    3   34 1
   9    3   35 1
  10    4    5 1
  11    4    7 2
  12    4    8 am
  13    5    6 1
  14    5   36 1
  15    5   37 1
  16    6   38 1
  17    6   39 1
  18    8    9 1
  19    8   40 1
  20    9   13 1
  21    9   41 1
  22    9   42 1
  23   10   11 1
  24   10   14 1
  25   11   12 2
  26   11   23 1
  27   12   13 1
  28   13   14 2
  29   14   17 1
  30   15   16 ar
  31   15   20 ar
  32   15   22 1
  33   16   17 ar
  34   16   43 1
  35   17   18 ar
  36   18   19 ar
  37   18   44 1
  38   19   20 ar
  39   19   21 1
  40   21   45 1
  41   21   46 1
  42   21   47 1
  43   22   48 1
  44   22   49 1
  45   22   50 1
  46   23   24 1
  47   23   28 1
  48   24   25 1
  49   24   51 1
  50   24   52 1
  51   25   26 1
  52   25   30 1
  53   25   53 1
  54   26   27 1
  55   27   28 1
  56   27   29 1
  57   27   54 1
  58   28   55 1
  59   28   56 1
  60   29   57 1
  61   29   58 1
  62   29   59 1
  63   30   60 1
  64   30   61 1
  65   30   62 1

#	End of record

