#	Name: ASD03092730
#	Creating user name:	WinNT
#	Creation time:	15. 06. 2019 20:33

#	Modifying user name:	WinNT
#	Modification time:	15. 06. 2019 20:33

#	Program:	/corina/corina34_cracker 3.40 0067  02.08.2006

@<TRIPOS>MOLECULE
ASD03092730
  42   44    0    0    0
SMALL
NO_CHARGES


@<TRIPOS>ATOM
   1 C1            -0.0401     1.1930     0.0128 C.2     
   2 O2             0.6609     1.2294    -0.9802 O.2     
   3 C3             0.4004     0.4328     1.2006 C.ar    
   4 C4             1.5645    -0.3375     1.1482 C.ar    
   5 C5             1.9706    -1.0443     2.2601 C.ar    
   6 C6             1.2266    -0.9920     3.4275 C.ar    
   7 C7             0.0711    -0.2299     3.4858 C.ar    
   8 C8            -0.3423     0.4860     2.3825 C.ar    
   9 Cl9            1.7439    -1.8857     4.8230 Cl      
  10 C10           -2.5400     1.2111    -0.0918 C.ar    
  11 C11           -1.3260     1.9120     0.0336 C.ar    
  12 C12           -1.3609     3.3026     0.1787 C.ar    
  13 C13           -2.6042     3.9338     0.1925 C.ar    
  14 C14           -3.7609     3.1653     0.0625 C.ar    
  15 N15           -3.6961     1.8566    -0.0727 N.ar    
  16 C16           -2.6957     5.4070     0.3445 C.ar    
  17 C17           -3.9415     6.0315     0.3575 C.ar    
  18 C18           -4.0234     7.4010     0.4993 C.ar    
  19 C19           -2.8665     8.1572     0.6286 C.ar    
  20 C20           -1.6241     7.5380     0.6155 C.ar    
  21 C21           -1.5362     6.1683     0.4802 C.ar    
  22 O22           -2.9503     9.5064     0.7677 O.3     
  23 C23           -1.7206    10.2230     0.8959 C.3     
  24 C24           -2.0140    11.7175     1.0415 C.3     
  25 N25           -2.5251    -0.1625    -0.2418 N.pl3   
  26 H26            2.1451    -0.3796     0.2384 H       
  27 H27            2.8705    -1.6402     2.2208 H       
  28 H28           -0.5047    -0.1931     4.3988 H       
  29 H29           -1.2410     1.0830     2.4304 H       
  30 H30           -0.4489     3.8724     0.2778 H       
  31 H31           -4.7254     3.6511     0.0731 H       
  32 H32           -4.8419     5.4438     0.2562 H       
  33 H33           -4.9886     7.8855     0.5094 H       
  34 H34           -0.7257     8.1290     0.7156 H       
  35 H35           -0.5695     5.6866     0.4746 H       
  36 H36           -1.1848     9.8704     1.7772 H       
  37 H37           -1.1094    10.0574     0.0087 H       
  38 H38           -1.0761    12.2641     1.1393 H       
  39 H39           -2.5499    12.0701     0.1602 H       
  40 H40           -2.6252    11.8830     1.9287 H       
  41 H41           -1.6810    -0.6311    -0.3351 H       
  42 H42           -3.3589    -0.6581    -0.2537 H       
@<TRIPOS>BOND
   1    1    2 2
   2    1    3 1
   3    1   11 1
   4    3    4 ar
   5    3    8 ar
   6    4    5 ar
   7    4   26 1
   8    5    6 ar
   9    5   27 1
  10    6    7 ar
  11    6    9 1
  12    7    8 ar
  13    7   28 1
  14    8   29 1
  15   10   11 ar
  16   10   15 ar
  17   10   25 1
  18   11   12 ar
  19   12   13 ar
  20   12   30 1
  21   13   14 ar
  22   13   16 1
  23   14   15 ar
  24   14   31 1
  25   16   17 ar
  26   16   21 ar
  27   17   18 ar
  28   17   32 1
  29   18   19 ar
  30   18   33 1
  31   19   20 ar
  32   19   22 1
  33   20   21 ar
  34   20   34 1
  35   21   35 1
  36   22   23 1
  37   23   24 1
  38   23   36 1
  39   23   37 1
  40   24   38 1
  41   24   39 1
  42   24   40 1
  43   25   41 1
  44   25   42 1

#	End of record

