#	Name: ASD01882641
#	Creating user name:	WinNT
#	Creation time:	15. 06. 2019 19:44

#	Modifying user name:	WinNT
#	Modification time:	15. 06. 2019 19:44

#	Program:	/corina/corina34_cracker 3.40 0067  02.08.2006

@<TRIPOS>MOLECULE
ASD01882641
  51   54    0    0    0
SMALL
NO_CHARGES


@<TRIPOS>ATOM
   1 C1             1.6550     1.3970     1.0690 C.2     
   2 C2             1.7662    -0.0014     0.9876 C.2     
   3 C3             1.2585    -0.6481    -0.1064 C.2     
   4 C4             0.6346     0.0983    -1.1298 C.2     
   5 C5             0.5390     1.4386    -1.0311 C.2     
   6 N6             1.0419     2.0929     0.0555 N.pl3   
   7 N7             1.6947     3.4670     1.5806 N.2     
   8 N8             2.0295     2.2886     1.9739 N.2     
   9 C9             1.0915     3.4056     0.4228 C.2     
  10 C10            2.4364    -0.7792     2.0908 C.3     
  11 F11            3.7866    -0.9658     1.7759 F       
  12 F12            2.3314    -0.0695     3.2919 F       
  13 F13            1.8132    -2.0241     2.2287 F       
  14 C14            0.5482     4.5718    -0.3619 C.3     
  15 C15           -0.9049     4.8266     0.0435 C.3     
  16 C16           -1.4566     6.0106    -0.7532 C.3     
  17 N17            1.3570    -2.0324    -0.2098 N.pl3   
  18 C18            2.6677    -2.6812    -0.3502 C.3     
  19 C19            2.6392    -3.5883    -1.5843 C.3     
  20 C20            1.4646    -4.5627    -1.4693 C.3     
  21 C21            0.1519    -3.7778    -1.4163 C.3     
  22 C22            0.1526    -2.8732    -0.1746 C.3     
  23 C23            1.4536    -5.4793    -2.6654 C.ar    
  24 C24            1.5688    -6.8456    -2.4903 C.ar    
  25 C25            1.5588    -7.6864    -3.5875 C.ar    
  26 C26            1.4331    -7.1608    -4.8598 C.ar    
  27 C27            1.3169    -5.7946    -5.0349 C.ar    
  28 C28            1.3226    -4.9541    -3.9374 C.ar    
  29 H29            0.2327    -0.4072    -1.9954 H       
  30 H30            0.0602     2.0003    -1.8195 H       
  31 H31            1.1448     5.4598    -0.1531 H       
  32 H32            0.5938     4.3456    -1.4273 H       
  33 H33           -1.5015     3.9386    -0.1653 H       
  34 H34           -0.9506     5.0527     1.1088 H       
  35 H35           -0.8600     6.8986    -0.5444 H       
  36 H36           -1.4110     5.7844    -1.8185 H       
  37 H37           -2.4918     6.1921    -0.4643 H       
  38 H38            3.4401    -1.9219    -0.4726 H       
  39 H39            2.8768    -3.2783     0.5374 H       
  40 H40            2.5204    -2.9796    -2.4807 H       
  41 H41            3.5721    -4.1488    -1.6456 H       
  42 H42            1.5711    -5.1540    -0.5598 H       
  43 H43            0.0565    -3.1673    -2.3142 H       
  44 H44           -0.6856    -4.4731    -1.3579 H       
  45 H45            0.1608    -3.4856     0.7271 H       
  46 H46           -0.7350    -2.2406    -0.1811 H       
  47 H47            1.6670    -7.2562    -1.4962 H       
  48 H48            1.6495    -8.7538    -3.4507 H       
  49 H49            1.4259    -7.8177    -5.7171 H       
  50 H50            1.2191    -5.3839    -6.0290 H       
  51 H51            1.2282    -3.8870    -4.0740 H       
@<TRIPOS>BOND
   1    1    2 1
   2    1    6 1
   3    1    8 2
   4    2    3 2
   5    2   10 1
   6    3    4 1
   7    3   17 1
   8    4    5 2
   9    4   29 1
  10    5    6 1
  11    5   30 1
  12    6    9 1
  13    7    8 1
  14    7    9 2
  15    9   14 1
  16   10   11 1
  17   10   12 1
  18   10   13 1
  19   14   15 1
  20   14   31 1
  21   14   32 1
  22   15   16 1
  23   15   33 1
  24   15   34 1
  25   16   35 1
  26   16   36 1
  27   16   37 1
  28   17   18 1
  29   17   22 1
  30   18   19 1
  31   18   38 1
  32   18   39 1
  33   19   20 1
  34   19   40 1
  35   19   41 1
  36   20   21 1
  37   20   23 1
  38   20   42 1
  39   21   22 1
  40   21   43 1
  41   21   44 1
  42   22   45 1
  43   22   46 1
  44   23   24 ar
  45   23   28 ar
  46   24   25 ar
  47   24   47 1
  48   25   26 ar
  49   25   48 1
  50   26   27 ar
  51   26   49 1
  52   27   28 ar
  53   27   50 1
  54   28   51 1

#	End of record

