#	Name: ASD03331525
#	Creating user name:	WinNT
#	Creation time:	15. 06. 2019 20:39

#	Modifying user name:	WinNT
#	Modification time:	15. 06. 2019 20:39

#	Program:	/corina/corina34_cracker 3.40 0067  02.08.2006

@<TRIPOS>MOLECULE
ASD03331525
  69   72    0    0    0
SMALL
NO_CHARGES


@<TRIPOS>ATOM
   1 C1             1.1092     0.8344     0.8807 C.ar    
   2 C2             0.8202    -0.6124     0.7697 C.2     
   3 N3            -0.4063    -1.1961     0.9435 N.pl3   
   4 C4            -0.2392    -2.5296     0.7891 C.2     
   5 C5             1.0731    -2.7437     0.4868 C.2     
   6 N6             1.6947    -1.5455     0.4832 N.2     
   7 C7             1.6992    -4.0484     0.2088 C.2     
   8 N8             3.0143    -4.1173    -0.0780 N.am    
   9 C9             2.4058     1.2707     1.1541 C.ar    
  10 O10            1.0292    -5.0630     0.2380 O.2     
  11 C11            3.6368    -5.4144    -0.3544 C.3     
  12 C12            2.6690     2.6213     1.2559 C.ar    
  13 C13            1.6502     3.5421     1.0881 C.ar    
  14 C14            0.3623     3.1158     0.8168 C.ar    
  15 C15            0.0874     1.7682     0.7068 C.ar    
  16 C16           -1.6546    -0.4784     1.2159 C.3     
  17 C17           -2.6202    -1.3768     1.9924 C.3     
  18 N18           -3.3332    -2.2480     1.0455 N.am    
  19 C19           -2.5600    -3.1472     0.1868 C.3     
  20 C20           -1.3045    -3.5806     0.9511 C.3     
  21 C21            3.4461    -5.7672    -1.8309 C.3     
  22 N22            5.7749    -6.4538     0.3285 N.am    
  23 C23            5.1091    -5.3419    -0.0413 C.2     
  24 C24            7.2245    -6.4050     0.5352 C.3     
  25 O25            5.6949    -4.2830    -0.1221 O.2     
  26 C26            3.9984    -4.6363    -2.7009 C.3     
  27 C27            4.1936    -7.0645    -2.1459 C.3     
  28 C28            1.9558    -5.9537    -2.1224 C.3     
  29 C29           -4.6785    -2.2192     0.9697 C.2     
  30 C30           -5.3894    -3.1653     0.0835 C.ar    
  31 O31           -5.3073    -1.4155     1.6300 O.2     
  32 C32           -6.6294    -3.6828     0.4614 C.ar    
  33 C33           -7.2875    -4.5653    -0.3702 C.ar    
  34 C34           -6.7209    -4.9375    -1.5763 C.ar    
  35 C35           -5.4918    -4.4285    -1.9567 C.ar    
  36 C36           -4.8261    -3.5404    -1.1372 C.ar    
  37 H37            3.5487    -3.3081    -0.1013 H       
  38 H38            3.2018     0.5528     1.2860 H       
  39 H39            3.1708    -6.1805     0.2653 H       
  40 H40            3.6723     2.9604     1.4675 H       
  41 H41            1.8611     4.5982     1.1695 H       
  42 H42           -0.4288     3.8396     0.6872 H       
  43 H43           -0.9184     1.4367     0.4947 H       
  44 H44           -1.4379     0.4129     1.8046 H       
  45 H45           -2.1148    -0.1832     0.2730 H       
  46 H46           -2.0601    -1.9885     2.6997 H       
  47 H47           -3.3387    -0.7595     2.5316 H       
  48 H48           -3.1592    -4.0230    -0.0622 H       
  49 H49           -2.2726    -2.6262    -0.7265 H       
  50 H50           -0.9444    -4.5288     0.5520 H       
  51 H51           -1.5437    -3.6968     2.0082 H       
  52 H52            5.2944    -7.2864     0.4579 H       
  53 H53            7.5831    -7.3917     0.8283 H       
  54 H54            7.7133    -6.1009    -0.3904 H       
  55 H55            7.4554    -5.6861     1.3212 H       
  56 H56            5.0601    -4.5035    -2.4933 H       
  57 H57            3.8626    -4.8877    -3.7528 H       
  58 H58            3.4659    -3.7121    -2.4765 H       
  59 H59            3.7652    -7.8810    -1.5645 H       
  60 H60            4.1016    -7.2880    -3.2088 H       
  61 H61            5.2465    -6.9488    -1.8888 H       
  62 H62            1.4233    -5.0294    -1.8980 H       
  63 H63            1.8200    -6.2050    -3.1743 H       
  64 H64            1.5623    -6.7593    -1.5026 H       
  65 H65           -7.0725    -3.3934     1.4028 H       
  66 H66           -8.2468    -4.9667    -0.0788 H       
  67 H67           -7.2402    -5.6286    -2.2237 H       
  68 H68           -5.0549    -4.7233    -2.8993 H       
  69 H69           -3.8670    -3.1436    -1.4354 H       
@<TRIPOS>BOND
   1    1    2 1
   2    1    9 ar
   3    1   15 ar
   4    2    3 1
   5    2    6 2
   6    3    4 1
   7    3   16 1
   8    4    5 2
   9    4   20 1
  10    5    6 1
  11    5    7 1
  12    7    8 am
  13    7   10 2
  14    8   11 1
  15    8   37 1
  16    9   12 ar
  17    9   38 1
  18   11   21 1
  19   11   23 1
  20   11   39 1
  21   12   13 ar
  22   12   40 1
  23   13   14 ar
  24   13   41 1
  25   14   15 ar
  26   14   42 1
  27   15   43 1
  28   16   17 1
  29   16   44 1
  30   16   45 1
  31   17   18 1
  32   17   46 1
  33   17   47 1
  34   18   19 1
  35   18   29 am
  36   19   20 1
  37   19   48 1
  38   19   49 1
  39   20   50 1
  40   20   51 1
  41   21   26 1
  42   21   27 1
  43   21   28 1
  44   22   23 am
  45   22   24 1
  46   22   52 1
  47   23   25 2
  48   24   53 1
  49   24   54 1
  50   24   55 1
  51   26   56 1
  52   26   57 1
  53   26   58 1
  54   27   59 1
  55   27   60 1
  56   27   61 1
  57   28   62 1
  58   28   63 1
  59   28   64 1
  60   29   30 1
  61   29   31 2
  62   30   32 ar
  63   30   36 ar
  64   32   33 ar
  65   32   65 1
  66   33   34 ar
  67   33   66 1
  68   34   35 ar
  69   34   67 1
  70   35   36 ar
  71   35   68 1
  72   36   69 1

#	End of record

