#	Name: ASD01913066
#	Creating user name:	WinNT
#	Creation time:	15. 06. 2019 20:00

#	Modifying user name:	WinNT
#	Modification time:	15. 06. 2019 20:00

#	Program:	/corina/corina34_cracker 3.40 0067  02.08.2006

@<TRIPOS>MOLECULE
ASD01913066
  32   33    0    0    0
SMALL
NO_CHARGES


@<TRIPOS>ATOM
   1 C1            -0.0179     1.4693     0.0101 C.ar    
   2 C2             0.0021    -0.0041     0.0020 C.2     
   3 C3            -1.1514    -0.6912     0.0093 C.2     
   4 C4            -1.1315    -2.1648     0.0012 C.ar    
   5 C5            -1.2301     2.1720     0.0314 C.ar    
   6 C6            -2.3300    -2.8833     0.0088 C.ar    
   7 C7             1.1748     2.2048     0.0027 C.ar    
   8 N8             1.1135     3.5239     0.0103 N.ar    
   9 C9            -0.0543     4.1513     0.0248 C.ar    
  10 N10           -1.2045     3.4923     0.0379 N.ar    
  11 C11           -2.3035    -4.2622     0.0007 C.ar    
  12 C12           -1.0939    -4.9343    -0.0150 C.ar    
  13 C13            0.0970    -4.2295    -0.0221 C.ar    
  14 C14            0.0860    -2.8504    -0.0199 C.ar    
  15 C15            1.1856     6.2839     0.0253 C.3     
  16 N16           -0.0730     5.5343     0.0328 N.pl3   
  17 C17           -1.3515     6.2494     0.0488 C.3     
  18 H18            0.9446    -0.5313    -0.0098 H       
  19 H19           -2.0939    -0.1639     0.0212 H       
  20 H20           -2.1709     1.6419     0.0418 H       
  21 H21           -3.2747    -2.3601     0.0214 H       
  22 H22            2.1298     1.7005    -0.0088 H       
  23 H23           -3.2289    -4.8188     0.0069 H       
  24 H24           -1.0793    -6.0142    -0.0213 H       
  25 H25            1.0372    -4.7608    -0.0339 H       
  26 H26            1.0162    -2.3016    -0.0255 H       
  27 H27            1.4881     6.4757    -1.0042 H       
  28 H28            1.0472     7.2316     0.5458 H       
  29 H29            1.9579     5.7023     0.5286 H       
  30 H30           -1.6782     6.4326    -0.9748 H       
  31 H31           -2.0983     5.6471     0.5662 H       
  32 H32           -1.2293     7.2006     0.5669 H       
@<TRIPOS>BOND
   1    1    2 1
   2    1    7 ar
   3    1    5 ar
   4    2    3 2
   5    2   18 1
   6    3    4 1
   7    3   19 1
   8    4    6 ar
   9    4   14 ar
  10    5   10 ar
  11    5   20 1
  12    6   11 ar
  13    6   21 1
  14    7    8 ar
  15    7   22 1
  16    8    9 ar
  17    9   10 ar
  18    9   16 1
  19   11   12 ar
  20   11   23 1
  21   12   13 ar
  22   12   24 1
  23   13   14 ar
  24   13   25 1
  25   14   26 1
  26   15   16 1
  27   15   27 1
  28   15   28 1
  29   15   29 1
  30   16   17 1
  31   17   30 1
  32   17   31 1
  33   17   32 1

#	End of record

