#	Name: ASD03330362
#	Creating user name:	WinNT
#	Creation time:	15. 06. 2019 20:37

#	Modifying user name:	WinNT
#	Modification time:	15. 06. 2019 20:37

#	Program:	/corina/corina34_cracker 3.40 0067  02.08.2006

@<TRIPOS>MOLECULE
ASD03330362
  54   57    0    0    0
SMALL
NO_CHARGES


@<TRIPOS>ATOM
   1 C1            -0.5167     1.4101     0.8969 C.3     
   2 N2            -0.7023     0.0003     0.5256 N.3     
   3 C3             0.1088    -0.3515    -0.6540 C.3     
   4 C4             1.5186     0.1193    -0.4061 C.2     
   5 N5             1.8575     1.0093     0.5709 N.pl3   
   6 C6             0.8851     1.6129     1.4863 C.3     
   7 C7             2.6613    -0.2185    -1.0540 C.2     
   8 N8             3.6785     0.4577    -0.4726 N.2     
   9 C9             3.2016     1.1960     0.5046 C.2     
  10 C10            3.9952     2.0823     1.3842 C.ar    
  11 C11            5.2988     2.4336     1.0324 C.ar    
  12 C12            2.7744    -1.1538    -2.1868 C.2     
  13 O13            1.7810    -1.7036    -2.6230 O.2     
  14 C14            4.1030    -2.3667    -3.7428 C.ar    
  15 N15            3.9786    -1.4001    -2.7397 N.am    
  16 C16           -2.1217    -0.3016     0.2976 C.3     
  17 C17            6.0337     3.2604     1.8570 C.ar    
  18 C18            5.4805     3.7410     3.0305 C.ar    
  19 C19            4.1884     3.3963     3.3849 C.ar    
  20 C20            3.4411     2.5748     2.5661 C.ar    
  21 C21            3.1299    -2.4769    -4.7276 C.ar    
  22 C22           -2.5362     0.2090    -1.0838 C.3     
  23 C23            5.2028    -3.2147    -3.7596 C.ar    
  24 C24            5.3226    -4.1682    -4.7515 C.ar    
  25 C25            4.3491    -4.2790    -5.7273 C.ar    
  26 C26            3.2585    -3.4287    -5.7200 C.ar    
  27 C27           -3.9489    -0.2819    -1.4063 C.3     
  28 C28           -2.5141     1.7389    -1.0898 C.3     
  29 H29           -0.6316     2.0359     0.0118 H       
  30 H30           -1.2653     1.6912     1.6376 H       
  31 H31            0.1010    -1.4320    -0.7976 H       
  32 H32           -0.2941     0.1415    -1.5386 H       
  33 H33            1.0899     2.6784     1.5901 H       
  34 H34            0.9479     1.1289     2.4609 H       
  35 H35            5.7319     2.0588     0.1168 H       
  36 H36            4.7590    -0.9070    -2.4418 H       
  37 H37           -2.2766    -1.3794     0.3481 H       
  38 H38           -2.7248     0.1883     1.0620 H       
  39 H39            7.0430     3.5328     1.5860 H       
  40 H40            6.0599     4.3876     3.6728 H       
  41 H41            3.7622     3.7747     4.3023 H       
  42 H42            2.4325     2.3065     2.8438 H       
  43 H43            2.2733    -1.8192    -4.7171 H       
  44 H44           -1.8407    -0.1673    -1.8340 H       
  45 H45            5.9637    -3.1284    -2.9980 H       
  46 H46            6.1777    -4.8277    -4.7653 H       
  47 H47            4.4453    -5.0252    -6.5021 H       
  48 H48            2.4997    -3.5180    -6.4833 H       
  49 H49           -4.6444     0.0944    -0.6561 H       
  50 H50           -4.2442     0.0819    -2.3905 H       
  51 H51           -3.9646    -1.3718    -1.4021 H       
  52 H52           -3.2509     2.1101    -1.8022 H       
  53 H53           -2.7535     2.1096    -0.0931 H       
  54 H54           -1.5223     2.0868    -1.3783 H       
@<TRIPOS>BOND
   1    1    2 1
   2    1    6 1
   3    1   29 1
   4    1   30 1
   5    2    3 1
   6    2   16 1
   7    3    4 1
   8    3   31 1
   9    3   32 1
  10    4    5 1
  11    4    7 2
  12    5    6 1
  13    5    9 1
  14    6   33 1
  15    6   34 1
  16    7    8 1
  17    7   12 1
  18    8    9 2
  19    9   10 1
  20   10   11 ar
  21   10   20 ar
  22   11   17 ar
  23   11   35 1
  24   12   13 2
  25   12   15 am
  26   14   23 ar
  27   14   15 1
  28   14   21 ar
  29   15   36 1
  30   16   22 1
  31   16   37 1
  32   16   38 1
  33   17   18 ar
  34   17   39 1
  35   18   19 ar
  36   18   40 1
  37   19   20 ar
  38   19   41 1
  39   20   42 1
  40   21   26 ar
  41   21   43 1
  42   22   27 1
  43   22   28 1
  44   22   44 1
  45   23   24 ar
  46   23   45 1
  47   24   25 ar
  48   24   46 1
  49   25   26 ar
  50   25   47 1
  51   26   48 1
  52   27   49 1
  53   27   50 1
  54   27   51 1
  55   28   52 1
  56   28   53 1
  57   28   54 1

#	End of record

