#	Name: ASD01884777
#	Creating user name:	WinNT
#	Creation time:	15. 06. 2019 19:48

#	Modifying user name:	WinNT
#	Modification time:	15. 06. 2019 19:48

#	Program:	/corina/corina34_cracker 3.40 0067  02.08.2006

@<TRIPOS>MOLECULE
ASD01884777
  45   47    0    0    0
SMALL
NO_CHARGES


@<TRIPOS>ATOM
   1 N1            -0.0163     1.3534     0.0095 N.am    
   2 C2             0.0021    -0.0041     0.0020 C.2     
   3 C3             1.1314     2.0576     0.0023 C.2     
   4 C4             2.3671     1.3883    -0.0131 C.2     
   5 C5             2.3876     0.0245    -0.0207 C.2     
   6 C6             1.1751    -0.6792    -0.0129 C.2     
   7 C7            -1.2995     2.0602     0.0194 C.3     
   8 C8            -1.7328     2.2948     1.4436 C.ar    
   9 C9            -1.6300     3.5563     1.9981 C.ar    
  10 C10           -2.2393     1.2474     2.1947 C.ar    
  11 C11           -2.6375     1.4639     3.5026 C.ar    
  12 C12           -2.5290     2.7262     4.0578 C.ar    
  13 C13           -2.0277     3.7726     3.3043 C.ar    
  14 Cl14          -3.0280     2.9989     5.6981 Cl      
  15 O15            1.0986     3.2777     0.0088 O.2     
  16 C16            1.1777    -2.1862    -0.0205 C.3     
  17 C17            1.2908    -2.6887    -1.4612 C.3     
  18 C18            1.2935    -4.2186    -1.4690 C.3     
  19 O19            1.3991    -4.6880    -2.8146 O.3     
  20 F20           -2.3452     0.0151     1.6511 F       
  21 C21            1.4153    -6.0343    -2.9990 C.ar    
  22 C22            1.5159    -6.5591    -4.2793 C.ar    
  23 C23            1.3370    -6.8862    -1.9068 C.ar    
  24 C24            1.3542    -8.2544    -2.0968 C.ar    
  25 C25            1.4497    -8.7749    -3.3742 C.ar    
  26 C26            1.5326    -7.9280    -4.4640 C.ar    
  27 H27           -0.9291    -0.5510     0.0084 H       
  28 H28            3.2908     1.9479    -0.0193 H       
  29 H29            3.3275    -0.5074    -0.0329 H       
  30 H30           -1.1908     3.0178    -0.4898 H       
  31 H31           -2.0496     1.4587    -0.4942 H       
  32 H32           -1.2384     4.3737     1.4108 H       
  33 H33           -3.0330     0.6478     4.0891 H       
  34 H34           -1.9427     4.7579     3.7383 H       
  35 H35            2.0257    -2.5510     0.5591 H       
  36 H36            0.2511    -2.5534     0.4207 H       
  37 H37            0.4428    -2.3239    -2.0409 H       
  38 H38            2.2174    -2.3215    -1.9024 H       
  39 H39            2.1414    -4.5834    -0.8894 H       
  40 H40            0.3669    -4.5859    -1.0278 H       
  41 H41            1.5807    -5.8980    -5.1308 H       
  42 H42            1.2632    -6.4800    -0.9088 H       
  43 H43            1.2933    -8.9179    -1.2469 H       
  44 H44            1.4633    -9.8449    -3.5206 H       
  45 H45            1.6068    -8.3371    -5.4608 H       
@<TRIPOS>BOND
   1    1    2 1
   2    1    3 am
   3    1    7 1
   4    2    6 2
   5    2   27 1
   6    3    4 1
   7    3   15 2
   8    4    5 2
   9    4   28 1
  10    5    6 1
  11    5   29 1
  12    6   16 1
  13    7    8 1
  14    7   30 1
  15    7   31 1
  16    8    9 ar
  17    8   10 ar
  18    9   13 ar
  19    9   32 1
  20   10   11 ar
  21   10   20 1
  22   11   12 ar
  23   11   33 1
  24   12   13 ar
  25   12   14 1
  26   13   34 1
  27   16   17 1
  28   16   35 1
  29   16   36 1
  30   17   18 1
  31   17   37 1
  32   17   38 1
  33   18   19 1
  34   18   39 1
  35   18   40 1
  36   19   21 1
  37   21   22 ar
  38   21   23 ar
  39   22   26 ar
  40   22   41 1
  41   23   24 ar
  42   23   42 1
  43   24   25 ar
  44   24   43 1
  45   25   26 ar
  46   25   44 1
  47   26   45 1

#	End of record

