#	Name: ASD01816756
#	Creating user name:	WinNT
#	Creation time:	15. 06. 2019 19:35

#	Modifying user name:	WinNT
#	Modification time:	15. 06. 2019 19:35

#	Program:	/corina/corina34_cracker 3.40 0067  02.08.2006

@<TRIPOS>MOLECULE
ASD01816756
  67   72    0    0    0
SMALL
NO_CHARGES


@<TRIPOS>ATOM
   1 C1             0.5106     0.6671     1.9992 C.2     
   2 C2             0.2700    -0.3725     1.0905 C.2     
   3 C3             1.2068    -0.6671     0.1438 C.2     
   4 C4             2.3977     0.0768     0.0957 C.2     
   5 N5             2.6066     1.0865     0.9958 N.am    
   6 C6             1.6627     1.3721     1.9373 C.2     
   7 C7             3.3622    -0.2237    -0.8759 C.2     
   8 C8             4.5225     0.4935    -0.9308 C.2     
   9 C9             4.7332     1.5306    -0.0044 C.2     
  10 C10            3.7449     1.8081     0.9611 C.2     
  11 C11            3.1186    -1.3389    -1.8596 C.3     
  12 O12            3.9195     2.7060     1.7679 O.2     
  13 C13            5.9710     2.3156    -0.0423 C.2     
  14 N14            5.9144     3.6589    -0.1365 N.am    
  15 O15            7.0496     1.7542     0.0112 O.2     
  16 N16            2.5523    -0.7855    -3.0970 N.3     
  17 C17            2.5214    -1.7976    -4.1604 C.3     
  18 C18            2.0640    -1.1503    -5.4695 C.3     
  19 C19            0.6710    -0.5452    -5.2745 C.3     
  20 C20            0.7199     0.4702    -4.1295 C.3     
  21 C21            1.2164    -0.2241    -2.8593 C.3     
  22 C22            0.2401     0.1459    -6.5425 C.ar    
  23 N23            1.1333     0.4129    -7.4749 N.ar    
  24 C24            0.8021     1.0160    -8.6001 C.ar    
  25 C25           -0.5052     1.3925    -8.8420 C.ar    
  26 C26           -1.4728     1.1283    -7.8844 C.ar    
  27 C27           -1.0879     0.4874    -6.7169 C.ar    
  28 C28           -0.2873    -1.6128    -4.9446 C.1     
  29 N29           -1.0268    -2.4367    -4.6900 N.1     
  30 C30            4.6286     4.3397    -0.3419 C.3     
  31 C31            4.8326     5.4102    -1.4219 C.3     
  32 C32            5.8344     6.4445    -0.9090 C.3     
  33 C33            7.0805     5.7665    -0.4037 C.ar    
  34 C34            7.0797     4.4297    -0.0342 C.ar    
  35 C35            8.2495     6.5023    -0.3023 C.ar    
  36 C36            9.4084     5.9095     0.1597 C.ar    
  37 C37            9.4084     4.5756     0.5254 C.ar    
  38 C38            8.2475     3.8358     0.4319 C.ar    
  39 H39           -0.2287     0.9088     2.7485 H       
  40 H40           -0.6500    -0.9361     1.1397 H       
  41 H41            1.0348    -1.4658    -0.5625 H       
  42 H42            1.8376     2.1709     2.6428 H       
  43 H43            5.2700     0.2669    -1.6767 H       
  44 H44            4.0611    -1.8386    -2.0832 H       
  45 H45            2.4199    -2.0566    -1.4296 H       
  46 H46            3.5190    -2.2169    -4.2918 H       
  47 H47            1.8271    -2.5918    -3.8859 H       
  48 H48            2.7655    -0.3653    -5.7519 H       
  49 H49            2.0262    -1.9051    -6.2550 H       
  50 H50            1.4003     1.2808    -4.3908 H       
  51 H51           -0.2781     0.8732    -3.9576 H       
  52 H52            0.5281    -1.0256    -2.5908 H       
  53 H53            1.2660     0.4995    -2.0456 H       
  54 H54            1.5616     1.2182    -9.3409 H       
  55 H55           -0.7701     1.8867    -9.7651 H       
  56 H56           -2.5024     1.4114    -8.0460 H       
  57 H57           -1.8149     0.2655    -5.9498 H       
  58 H58            3.8787     3.6207    -0.6717 H       
  59 H59            4.3070     4.8095     0.5876 H       
  60 H60            5.2198     4.9452    -2.3285 H       
  61 H61            3.8818     5.8980    -1.6369 H       
  62 H62            6.0979     7.1232    -1.7203 H       
  63 H63            5.3803     7.0137    -0.0978 H       
  64 H64            8.2551     7.5443    -0.5861 H       
  65 H65           10.3167     6.4888     0.2354 H       
  66 H66           10.3154     4.1140     0.8869 H       
  67 H67            8.2468     2.7942     0.7174 H       
@<TRIPOS>BOND
   1    1    2 1
   2    1    6 2
   3    1   39 1
   4    2    3 2
   5    2   40 1
   6    3    4 1
   7    3   41 1
   8    4    5 1
   9    4    7 2
  10    5    6 1
  11    5   10 am
  12    6   42 1
  13    7    8 1
  14    7   11 1
  15    8    9 2
  16    8   43 1
  17    9   10 1
  18    9   13 1
  19   10   12 2
  20   11   16 1
  21   11   44 1
  22   11   45 1
  23   13   15 2
  24   13   14 am
  25   14   30 1
  26   14   34 1
  27   16   17 1
  28   16   21 1
  29   17   18 1
  30   17   46 1
  31   17   47 1
  32   18   19 1
  33   18   48 1
  34   18   49 1
  35   19   20 1
  36   19   22 1
  37   19   28 1
  38   20   21 1
  39   20   50 1
  40   20   51 1
  41   21   52 1
  42   21   53 1
  43   22   23 ar
  44   22   27 ar
  45   23   24 ar
  46   24   25 ar
  47   24   54 1
  48   25   26 ar
  49   25   55 1
  50   26   27 ar
  51   26   56 1
  52   27   57 1
  53   28   29 3
  54   30   31 1
  55   30   58 1
  56   30   59 1
  57   31   32 1
  58   31   60 1
  59   31   61 1
  60   32   33 1
  61   32   62 1
  62   32   63 1
  63   33   34 ar
  64   33   35 ar
  65   34   38 ar
  66   35   36 ar
  67   35   64 1
  68   36   37 ar
  69   36   65 1
  70   37   38 ar
  71   37   66 1
  72   38   67 1

#	End of record

