#	Name: ASD06020194
#	Creating user name:	WinNT
#	Creation time:	15. 06. 2019 21:04

#	Modifying user name:	WinNT
#	Modification time:	15. 06. 2019 21:04

#	Program:	/corina/corina34_cracker 3.40 0067  02.08.2006

@<TRIPOS>MOLECULE
ASD06020194
  26   27    0    0    0
SMALL
NO_CHARGES


@<TRIPOS>ATOM
   1 C1            -0.0178     1.4755    -0.0738 C.2     
   2 C2             0.0026     0.0254    -0.3314 C.ar    
   3 C3             0.0267    -0.4552    -1.6453 C.ar    
   4 C4             0.0457    -1.8158    -1.8778 C.ar    
   5 C5             0.0404    -2.7024    -0.8157 C.ar    
   6 C6             0.0166    -2.2339     0.4863 C.ar    
   7 C7             0.0037    -0.8776     0.7354 C.ar    
   8 Cl8            1.4733     2.3474     0.0993 Cl      
   9 N9            -1.1569     2.1058     0.0190 N.2     
  10 N10           -0.0151    -0.3794     2.1291 N.pl3   
  11 O11           -0.0141    -1.1676     3.0577 O.2     
  12 O12           -0.0316     0.8188     2.3474 O.2     
  13 C13           -1.9052     5.4793     1.2160 C.ar    
  14 C14           -1.9141     4.0987     1.1428 C.ar    
  15 C15           -1.1772     3.4686     0.1297 C.ar    
  16 C16           -0.4617     4.2750    -0.7659 C.ar    
  17 C17           -0.5093     5.6440    -0.6178 C.ar    
  18 N18           -1.2157     6.1989     0.3496 N.ar    
  19 F19           -2.6212     3.3686     2.0328 F       
  20 Cl20          -2.8172     6.2774     2.4590 Cl      
  21 Cl21           0.0322     0.6562    -2.9789 Cl      
  22 H22            0.0644    -2.1890    -2.8911 H       
  23 H23            0.0547    -3.7659    -1.0037 H       
  24 H24            0.0122    -2.9326     1.3099 H       
  25 H25            0.1189     3.8297    -1.5603 H       
  26 H26            0.0392     6.2727    -1.3037 H       
@<TRIPOS>BOND
   1    1    2 1
   2    1    8 1
   3    1    9 2
   4    2    3 ar
   5    2    7 ar
   6    3    4 ar
   7    3   21 1
   8    4    5 ar
   9    4   22 1
  10    5    6 ar
  11    5   23 1
  12    6    7 ar
  13    6   24 1
  14    7   10 1
  15    9   15 1
  16   10   11 2
  17   10   12 2
  18   13   14 ar
  19   13   18 ar
  20   13   20 1
  21   14   15 ar
  22   14   19 1
  23   15   16 ar
  24   16   17 ar
  25   16   25 1
  26   17   18 ar
  27   17   26 1

#	End of record

