#	Name: ASD09080037
#	Creating user name:	WinNT
#	Creation time:	15. 06. 2019 21:20

#	Modifying user name:	WinNT
#	Modification time:	15. 06. 2019 21:20

#	Program:	/corina/corina34_cracker 3.40 0067  02.08.2006

@<TRIPOS>MOLECULE
ASD09080037
  55   56    0    0    0
SMALL
NO_CHARGES


@<TRIPOS>ATOM
   1 C1            -0.0167     1.3772     0.0096 C.ar    
   2 C2             0.0021    -0.0041     0.0020 C.ar    
   3 C3             1.2087    -0.6820    -0.0127 C.ar    
   4 C4             2.4019     0.0195    -0.0203 C.ar    
   5 C5             2.3936     1.4009    -0.0128 C.ar    
   6 C6             1.1817     2.0879     0.0020 C.ar    
   7 Cl7           -1.4902    -0.8910     0.0115 Cl      
   8 Cl8            3.9112    -0.8380    -0.0387 Cl      
   9 C9             1.1672     3.5718     0.0096 C.ar    
  10 C10           -0.0448     4.2591     0.0244 C.ar    
  11 C11            2.3655     4.2827     0.0078 C.ar    
  12 C12           -0.0524     5.6392     0.0319 C.ar    
  13 C13            1.1401     6.3400     0.0248 C.ar    
  14 C14            2.3461     5.6628     0.0154 C.ar    
  15 C15            1.1254     7.8469     0.0325 C.3     
  16 C16            1.1333     8.3496     1.4776 C.3     
  17 C17            0.9927     9.8731     1.4884 C.3     
  18 C18            1.0007    10.3758     2.9334 C.3     
  19 O19           -0.2376    10.2424     0.8623 O.3     
  20 N20            2.3947     7.9710     2.1194 N.am    
  21 O21            3.6149     7.4900     4.0490 O.3     
  22 C22            3.6070     7.3651     5.4956 C.3     
  23 C23            2.5971     6.2928     5.9094 C.3     
  24 C24            5.0021     6.9661     5.9807 C.3     
  25 C25            3.2134     8.7048     6.1210 C.3     
  26 C26            2.4557     7.8379     3.4592 C.2     
  27 O27            1.4645     8.0319     4.1347 O.2     
  28 C28            0.9859    11.8827     2.9412 C.2     
  29 O29            0.9707    12.4921     1.8980 O.2     
  30 O30            0.9898    12.5479     4.1070 O.3     
  31 H31           -0.9587     1.9054     0.0170 H       
  32 H32            1.2193    -1.7620    -0.0179 H       
  33 H33            3.3252     1.9474    -0.0180 H       
  34 H34           -0.9765     3.7129     0.0296 H       
  35 H35            3.3077     3.7549     0.0009 H       
  36 H36           -0.9912     6.1730     0.0430 H       
  37 H37            3.2743     6.2149     0.0099 H       
  38 H38            2.0071     8.2216    -0.4873 H       
  39 H39            0.2273     8.2041    -0.4715 H       
  40 H40            0.3007     7.9040     2.0218 H       
  41 H41            1.8254    10.3187     0.9441 H       
  42 H42            0.1189    10.0011     3.4533 H       
  43 H43            1.8987    10.0186     3.4374 H       
  44 H44           -0.3122     9.9554    -0.0581 H       
  45 H45            3.1859     7.8162     1.5801 H       
  46 H46            2.8776     5.3384     5.4638 H       
  47 H47            2.5912     6.1990     6.9953 H       
  48 H48            1.6032     6.5770     5.5638 H       
  49 H49            5.7216     7.7300     5.6859 H       
  50 H50            4.9962     6.8724     7.0666 H       
  51 H51            5.2825     6.0117     5.5351 H       
  52 H52            2.2195     8.9891     5.7754 H       
  53 H53            3.2074     8.6111     7.2069 H       
  54 H54            3.9328     9.4688     5.8262 H       
  55 H55            0.9799    13.5138     4.0614 H       
@<TRIPOS>BOND
   1    1    2 ar
   2    1    6 ar
   3    1   31 1
   4    2    3 ar
   5    2    7 1
   6    3    4 ar
   7    3   32 1
   8    4    5 ar
   9    4    8 1
  10    5    6 ar
  11    5   33 1
  12    6    9 1
  13    9   10 ar
  14    9   11 ar
  15   10   12 ar
  16   10   34 1
  17   11   14 ar
  18   11   35 1
  19   12   13 ar
  20   12   36 1
  21   13   14 ar
  22   13   15 1
  23   14   37 1
  24   15   16 1
  25   15   38 1
  26   15   39 1
  27   16   17 1
  28   16   20 1
  29   16   40 1
  30   17   18 1
  31   17   19 1
  32   17   41 1
  33   18   28 1
  34   18   42 1
  35   18   43 1
  36   19   44 1
  37   20   26 am
  38   20   45 1
  39   21   22 1
  40   21   26 1
  41   22   23 1
  42   22   24 1
  43   22   25 1
  44   23   46 1
  45   23   47 1
  46   23   48 1
  47   24   49 1
  48   24   50 1
  49   24   51 1
  50   25   52 1
  51   25   53 1
  52   25   54 1
  53   26   27 2
  54   28   29 2
  55   28   30 1
  56   30   55 1

#	End of record

