#	Name: ASD03540574
#	Creating user name:	WinNT
#	Creation time:	15. 06. 2019 20:43

#	Modifying user name:	WinNT
#	Modification time:	15. 06. 2019 20:43

#	Program:	/corina/corina34_cracker 3.40 0067  02.08.2006

@<TRIPOS>MOLECULE
ASD03540574
  49   53    0    0    0
SMALL
NO_CHARGES


@<TRIPOS>ATOM
   1 N1            -0.0164     1.3608     0.0095 N.pl3   
   2 C2             0.0021    -0.0041     0.0020 C.2     
   3 N3             1.1903    -0.7096    -0.0136 N.am    
   4 C4             2.3778    -0.0690    -0.0218 C.2     
   5 C5             2.3904     1.4059    -0.0139 C.ar    
   6 C6             3.5855     2.1157    -0.0217 C.ar    
   7 C7             3.5562     3.5094    -0.0138 C.ar    
   8 C8             2.3292     4.1841     0.0022 C.ar    
   9 C9             1.1464     3.4803     0.0104 C.ar    
  10 C10            1.1622     2.0912     0.0022 C.ar    
  11 N11           -2.0330     0.6196     0.0256 N.2     
  12 N12           -1.2514    -0.4005     0.0124 N.2     
  13 C13           -1.3340     1.7207     0.0296 C.2     
  14 C14            4.8185     4.2739    -0.0219 C.2     
  15 O15            5.8831     3.6886    -0.0354 O.2     
  16 O16            4.7903     5.6209    -0.0143 O.3     
  17 O17            3.4194    -0.6967    -0.0351 O.2     
  18 C18            1.1601    -2.1743    -0.0208 C.3     
  19 C19            1.1355    -2.6692    -1.4440 C.ar    
  20 C20            2.3210    -2.9208    -2.1089 C.ar    
  21 C21            2.2984    -3.3748    -3.4144 C.ar    
  22 C22            1.0902    -3.5776    -4.0548 C.ar    
  23 C23           -0.0953    -3.3269    -3.3896 C.ar    
  24 C24           -0.0727    -2.8771    -2.0827 C.ar    
  25 C25            6.0700     6.3070    -0.0230 C.3     
  26 C26            5.8413     7.7966    -0.0126 C.ar    
  27 C27            5.7481     8.4732     1.1892 C.ar    
  28 C28            5.5383     9.8395     1.1986 C.ar    
  29 C29            5.4222    10.5292     0.0063 C.ar    
  30 C30            5.5164     9.8527    -1.1955 C.ar    
  31 C31            5.7305     8.4871    -1.2050 C.ar    
  32 H32            4.5296     1.5914    -0.0333 H       
  33 H33            2.3109     5.2639     0.0086 H       
  34 H34            0.2046     4.0087     0.0235 H       
  35 H35           -1.7238     2.7278     0.0406 H       
  36 H36            2.0476    -2.5585     0.4822 H       
  37 H37            0.2681    -2.5219     0.5003 H       
  38 H38            3.2649    -2.7624    -1.6086 H       
  39 H39            3.2246    -3.5706    -3.9341 H       
  40 H40            1.0726    -3.9316    -5.0750 H       
  41 H41           -1.0392    -3.4850    -3.8900 H       
  42 H42           -0.9990    -2.6847    -1.5617 H       
  43 H43            6.6416     6.0211     0.8600 H       
  44 H44            6.6243     6.0308    -0.9199 H       
  45 H45            5.8388     7.9343     2.1207 H       
  46 H46            5.4647    10.3680     2.1376 H       
  47 H47            5.2576    11.5966     0.0137 H       
  48 H48            5.4254    10.3916    -2.1271 H       
  49 H49            5.8077     7.9591    -2.1440 H       
@<TRIPOS>BOND
   1    1    2 1
   2    1   10 1
   3    1   13 1
   4    2    3 1
   5    2   12 2
   6    3    4 am
   7    3   18 1
   8    4    5 1
   9    4   17 2
  10    5    6 ar
  11    5   10 ar
  12    6    7 ar
  13    6   32 1
  14    7    8 ar
  15    7   14 1
  16    8    9 ar
  17    8   33 1
  18    9   10 ar
  19    9   34 1
  20   11   12 1
  21   11   13 2
  22   13   35 1
  23   14   15 2
  24   14   16 1
  25   16   25 1
  26   18   19 1
  27   18   36 1
  28   18   37 1
  29   19   20 ar
  30   19   24 ar
  31   20   21 ar
  32   20   38 1
  33   21   22 ar
  34   21   39 1
  35   22   23 ar
  36   22   40 1
  37   23   24 ar
  38   23   41 1
  39   24   42 1
  40   25   26 1
  41   25   43 1
  42   25   44 1
  43   26   27 ar
  44   26   31 ar
  45   27   28 ar
  46   27   45 1
  47   28   29 ar
  48   28   46 1
  49   29   30 ar
  50   29   47 1
  51   30   31 ar
  52   30   48 1
  53   31   49 1

#	End of record

