#	Name: ASD03730323
#	Creating user name:	WinNT
#	Creation time:	15. 06. 2019 20:44

#	Modifying user name:	WinNT
#	Modification time:	15. 06. 2019 20:44

#	Program:	/corina/corina34_cracker 3.40 0067  02.08.2006

@<TRIPOS>MOLECULE
ASD03730323
  66   72    0    0    0
SMALL
NO_CHARGES


@<TRIPOS>ATOM
   1 N1            -0.1272     0.8519    -1.1297 N.3     
   2 C2             0.1013    -0.6089    -1.0314 C.3     
   3 O3             1.5064    -0.7464    -1.3096 O.3     
   4 C4             2.0963     0.4268    -0.9366 C.ar    
   5 C5             1.1240     1.4191    -0.8192 C.ar    
   6 O6             5.0306     2.5279    -0.0401 O.3     
   7 C7             4.8916     3.7674     0.6800 C.3     
   8 C8             3.5124     4.2642     0.2268 C.3     
   9 C9             2.8111     3.0003    -0.1938 C.ar    
  10 C10            3.7938     2.0231    -0.3168 C.ar    
  11 C11            1.4882     2.7024    -0.4462 C.ar    
  12 C12            3.4230     0.7331    -0.6843 C.ar    
  13 N13            2.5124     6.2154     0.8721 N.am    
  14 C14            2.7849     4.9773     1.3303 C.2     
  15 C15            3.6109     5.2587    -0.8914 C.ar    
  16 C16            4.1605     5.2189    -2.1608 C.ar    
  17 C17            4.0841     6.3364    -2.9847 C.ar    
  18 C18            3.4592     7.4818    -2.5304 C.ar    
  19 C19            2.9124     7.5237    -1.2643 C.ar    
  20 C20            2.9834     6.4107    -0.4286 C.ar    
  21 O21            2.4983     4.5274     2.4195 O.2     
  22 C22           -1.1549     1.2893    -0.1755 C.3     
  23 C23           -0.6054     1.1864     1.2487 C.3     
  24 C24           -1.6757     1.6420     2.2425 C.3     
  25 C25           -1.1262     1.5391     3.6667 C.3     
  26 C26           -2.1966     1.9947     4.6605 C.3     
  27 N27            4.7916     4.0577    -2.6137 N.pl3   
  28 C28            6.2931     5.1366    -4.1420 C.ar    
  29 C29            5.4836     4.0669    -3.8267 C.ar    
  30 C30            5.3482     2.9889    -4.7099 C.ar    
  31 C31            6.0100     2.9714    -5.8970 C.ar    
  32 C32            6.8438     4.0465    -6.2506 C.ar    
  33 C33            7.5396     4.0552    -7.4716 C.ar    
  34 C34            8.3387     5.1115    -7.7847 C.ar    
  35 C35            8.4797     6.1886    -6.9115 C.ar    
  36 C36            7.8218     6.2155    -5.7206 C.ar    
  37 C37            6.9868     5.1424    -5.3626 C.ar    
  38 H38           -0.1284    -0.9670    -0.0279 H       
  39 H39           -0.4914    -1.1413    -1.7754 H       
  40 H40            4.9058     3.5934     1.7559 H       
  41 H41            5.6710     4.4724     0.3907 H       
  42 H42            0.7352     3.4710    -0.3532 H       
  43 H43            4.1762    -0.0357    -0.7732 H       
  44 H44            2.0442     6.8920     1.3858 H       
  45 H45            4.5119     6.3092    -3.9760 H       
  46 H46            3.3986     8.3499    -3.1701 H       
  47 H47            2.4265     8.4242    -0.9189 H       
  48 H48           -1.4290     2.3232    -0.3853 H       
  49 H49           -2.0348     0.6533    -0.2723 H       
  50 H50           -0.3312     0.1525     1.4586 H       
  51 H51            0.2745     1.8224     1.3455 H       
  52 H52           -1.9499     2.6759     2.0327 H       
  53 H53           -2.5556     1.0060     2.1457 H       
  54 H54           -0.8521     0.5052     3.8766 H       
  55 H55           -0.2463     2.1751     3.7635 H       
  56 H56           -1.8051     1.9214     5.6751 H       
  57 H57           -2.4707     3.0286     4.4507 H       
  58 H58           -3.0765     1.3587     4.5637 H       
  59 H59            4.7492     3.2452    -2.0857 H       
  60 H60            6.3894     5.9664    -3.4575 H       
  61 H61            4.7094     2.1597    -4.4440 H       
  62 H62            5.8956     2.1325    -6.5675 H       
  63 H63            7.4410     3.2273    -8.1582 H       
  64 H64            8.8720     5.1149    -8.7238 H       
  65 H65            9.1207     7.0140    -7.1840 H       
  66 H66            7.9402     7.0569    -5.0539 H       
@<TRIPOS>BOND
   1    1    2 1
   2    1    5 1
   3    1   22 1
   4    2    3 1
   5    2   38 1
   6    2   39 1
   7    3    4 1
   8    4    5 ar
   9    4   12 ar
  10    5   11 ar
  11    6    7 1
  12    6   10 1
  13    7    8 1
  14    7   40 1
  15    7   41 1
  16    8    9 1
  17    8   14 1
  18    8   15 1
  19    9   10 ar
  20    9   11 ar
  21   10   12 ar
  22   11   42 1
  23   12   43 1
  24   13   14 am
  25   13   20 1
  26   13   44 1
  27   14   21 2
  28   15   16 ar
  29   15   20 ar
  30   16   17 ar
  31   16   27 1
  32   17   18 ar
  33   17   45 1
  34   18   19 ar
  35   18   46 1
  36   19   20 ar
  37   19   47 1
  38   22   23 1
  39   22   48 1
  40   22   49 1
  41   23   24 1
  42   23   50 1
  43   23   51 1
  44   24   25 1
  45   24   52 1
  46   24   53 1
  47   25   26 1
  48   25   54 1
  49   25   55 1
  50   26   56 1
  51   26   57 1
  52   26   58 1
  53   27   29 1
  54   27   59 1
  55   28   29 ar
  56   28   37 ar
  57   28   60 1
  58   29   30 ar
  59   30   31 ar
  60   30   61 1
  61   31   32 ar
  62   31   62 1
  63   32   33 ar
  64   32   37 ar
  65   33   34 ar
  66   33   63 1
  67   34   35 ar
  68   34   64 1
  69   35   36 ar
  70   35   65 1
  71   36   37 ar
  72   36   66 1

#	End of record

