#	Name: ASD01903136
#	Creating user name:	WinNT
#	Creation time:	15. 06. 2019 19:54

#	Modifying user name:	WinNT
#	Modification time:	15. 06. 2019 19:54

#	Program:	/corina/corina34_cracker 3.40 0067  02.08.2006

@<TRIPOS>MOLECULE
ASD01903136
  44   46    0    0    0
SMALL
NO_CHARGES


@<TRIPOS>ATOM
   1 C1             1.7354    -1.7060     2.0626 C.ar    
   2 C2             0.7269    -1.1749     1.2742 C.ar    
   3 C3             1.0007    -0.0840     0.4644 C.ar    
   4 N4             2.2016     0.4511     0.4355 N.ar    
   5 C5             3.1951    -0.0271     1.1749 C.ar    
   6 C6             2.9914    -1.1217     2.0119 C.ar    
   7 C7             4.5314     0.6087     1.1092 C.2     
   8 N8             4.7346     1.6681     0.3013 N.am    
   9 O9             5.4444     0.1751     1.7839 O.2     
  10 C10            5.9676     2.3276     0.3098 C.ar    
  11 C11            7.1414     1.6064     0.4868 C.ar    
  12 C12            8.3576     2.2608     0.4948 C.ar    
  13 C13            8.4075     3.6325     0.3269 C.ar    
  14 C14            7.2407     4.3535     0.1510 C.ar    
  15 C15            6.0217     3.7045     0.1358 C.ar    
  16 S16            9.9612     4.4635     0.3378 S.o2    
  17 O17            9.6929     5.8112     0.6996 O.2     
  18 O18           10.8575     3.6290     1.0585 O.2     
  19 N19           10.5091     4.4989    -1.2245 N.am    
  20 C20            9.7590     5.1438    -2.2147 C.ar    
  21 C21            9.7192     4.6275    -3.5081 C.ar    
  22 C22            8.9753     5.2698    -4.4840 C.ar    
  23 C23            8.2747     6.4211    -4.1740 C.ar    
  24 C24            8.3137     6.9341    -2.8907 C.ar    
  25 C25            9.0487     6.2956    -1.9096 C.ar    
  26 O26           10.4095     3.4956    -3.8118 O.3     
  27 C27           10.3223     3.0241    -5.1580 C.3     
  28 H28            1.5459    -2.5530     2.7053 H       
  29 H29           -0.2627    -1.6072     1.2904 H       
  30 H30            0.2172     0.3322    -0.1515 H       
  31 H31            3.8007    -1.5098     2.6126 H       
  32 H32            4.0256     1.9731    -0.2862 H       
  33 H33            7.1031     0.5351     0.6183 H       
  34 H34            9.2706     1.7006     0.6326 H       
  35 H35            7.2831     5.4248     0.0205 H       
  36 H36            5.1108     4.2682    -0.0016 H       
  37 H37           11.3499     4.0727    -1.4534 H       
  38 H38            8.9427     4.8717    -5.4874 H       
  39 H39            7.6958     6.9210    -4.9365 H       
  40 H40            7.7649     7.8335    -2.6533 H       
  41 H41            9.0771     6.6983    -0.9079 H       
  42 H42            9.2821     2.8066    -5.4002 H       
  43 H43           10.7010     3.7889    -5.8360 H       
  44 H44           10.9175     2.1172    -5.2645 H       
@<TRIPOS>BOND
   1    1    2 ar
   2    1    6 ar
   3    1   28 1
   4    2    3 ar
   5    2   29 1
   6    3    4 ar
   7    3   30 1
   8    4    5 ar
   9    5    6 ar
  10    5    7 1
  11    6   31 1
  12    7    8 am
  13    7    9 2
  14    8   10 1
  15    8   32 1
  16   10   11 ar
  17   10   15 ar
  18   11   12 ar
  19   11   33 1
  20   12   13 ar
  21   12   34 1
  22   13   14 ar
  23   13   16 1
  24   14   15 ar
  25   14   35 1
  26   15   36 1
  27   16   17 2
  28   16   18 2
  29   16   19 am
  30   19   20 1
  31   19   37 1
  32   20   21 ar
  33   20   25 ar
  34   21   22 ar
  35   21   26 1
  36   22   23 ar
  37   22   38 1
  38   23   24 ar
  39   23   39 1
  40   24   25 ar
  41   24   40 1
  42   25   41 1
  43   26   27 1
  44   27   42 1
  45   27   43 1
  46   27   44 1

#	End of record

