#	Name: ASD02039489
#	Creating user name:	WinNT
#	Creation time:	15. 06. 2019 20:18

#	Modifying user name:	WinNT
#	Modification time:	15. 06. 2019 20:18

#	Program:	/corina/corina34_cracker 3.40 0067  02.08.2006

@<TRIPOS>MOLECULE
ASD02039489
  50   51    0    0    0
SMALL
NO_CHARGES


@<TRIPOS>ATOM
   1 C1            -1.6703     0.8921     0.0888 C.2     
   2 N2            -0.7852    -0.0623     0.0985 N.2     
   3 C3            -1.4245    -1.2550    -0.0103 C.2     
   4 C4            -2.7620    -0.9986    -0.0891 C.2     
   5 N5            -2.9087     0.3457    -0.0266 N.pl3   
   6 C6            -0.7894    -2.5841    -0.0381 C.2     
   7 O7            -1.4768    -3.5871    -0.0121 O.2     
   8 N8             0.5532    -2.6884    -0.0924 N.am    
   9 C9             2.1904    -1.2416     1.0066 C.3     
  10 C10            1.3749    -1.4878    -0.2643 C.3     
  11 C11            2.3232    -1.6841    -1.4488 C.3     
  12 C12           -4.1757     1.0797    -0.0747 C.3     
  13 C13            1.1910    -4.0025     0.0206 C.3     
  14 C14            1.3652    -4.3528     1.4759 C.ar    
  15 C15            0.3331    -4.9569     2.1682 C.ar    
  16 C16            0.4932    -5.2796     3.5082 C.ar    
  17 C17            1.6931    -4.9937     4.1504 C.ar    
  18 C18            2.7218    -4.3890     3.4514 C.ar    
  19 C19            2.5593    -4.0745     2.1145 C.ar    
  20 N20           -0.5528    -5.8923     4.2134 N.pl3   
  21 N21           -1.8078    -6.2351     3.6937 N.2     
  22 C22           -2.5106    -6.7856     4.6509 C.2     
  23 C23           -1.7274    -6.8115     5.8099 C.2     
  24 C24           -0.5265    -6.2621     5.5137 C.2     
  25 C25           -2.1449    -7.3601     7.1500 C.3     
  26 F26            1.8534    -5.3057     5.4551 F       
  27 H27           -1.4552     1.9477     0.1648 H       
  28 H28           -3.5525    -1.7283    -0.1839 H       
  29 H29            2.9291    -2.0345     1.1236 H       
  30 H30            2.6983    -0.2800     0.9318 H       
  31 H31            1.5248    -1.2348     1.8698 H       
  32 H32            0.7296    -0.6300    -0.4538 H       
  33 H33            1.7475    -1.9527    -2.3345 H       
  34 H34            2.8672    -0.7583    -1.6361 H       
  35 H35            3.0305    -2.4812    -1.2197 H       
  36 H36           -4.4192     1.3167    -1.1104 H       
  37 H37           -4.9679     0.4655     0.3534 H       
  38 H38           -4.0827     2.0030     0.4971 H       
  39 H39            0.5645    -4.7530    -0.4614 H       
  40 H40            2.1660    -3.9762    -0.4660 H       
  41 H41           -0.5976    -5.1773     1.6668 H       
  42 H42            3.6542    -4.1660     3.9488 H       
  43 H43            3.3655    -3.6063     1.5693 H       
  44 H44           -3.5212    -7.1558     4.5616 H       
  45 H45            0.3028    -6.1386     6.1943 H       
  46 H46           -1.8827    -8.4165     7.2077 H       
  47 H47           -1.6316    -6.8146     7.9419 H       
  48 H48           -3.2222    -7.2460     7.2696 H       
  49 Cl49           8.6542     7.0030    12.9419 Cl      
  50 H50            8.6542     8.3730    12.9419 H       
@<TRIPOS>BOND
   1    1    2 2
   2    1    5 1
   3    1   27 1
   4    2    3 1
   5    3    4 2
   6    3    6 1
   7    4    5 1
   8    4   28 1
   9    5   12 1
  10    6    7 2
  11    6    8 am
  12    8   10 1
  13    8   13 1
  14    9   10 1
  15    9   29 1
  16    9   30 1
  17    9   31 1
  18   10   11 1
  19   10   32 1
  20   11   33 1
  21   11   34 1
  22   11   35 1
  23   12   36 1
  24   12   37 1
  25   12   38 1
  26   13   14 1
  27   13   39 1
  28   13   40 1
  29   14   15 ar
  30   14   19 ar
  31   15   16 ar
  32   15   41 1
  33   16   17 ar
  34   16   20 1
  35   17   18 ar
  36   17   26 1
  37   18   19 ar
  38   18   42 1
  39   19   43 1
  40   20   21 1
  41   20   24 1
  42   21   22 2
  43   22   23 1
  44   22   44 1
  45   23   24 2
  46   23   25 1
  47   24   45 1
  48   25   46 1
  49   25   47 1
  50   25   48 1
  51   49   50 1

#	End of record

