#	Name: ASD04590519
#	Creating user name:	WinNT
#	Creation time:	15. 06. 2019 20:51

#	Modifying user name:	WinNT
#	Modification time:	15. 06. 2019 20:51

#	Program:	/corina/corina34_cracker 3.40 0067  02.08.2006

@<TRIPOS>MOLECULE
ASD04590519
  73   78    0    0    0
SMALL
NO_CHARGES


@<TRIPOS>ATOM
   1 C1            -0.0167     1.3834     0.0096 C.ar    
   2 C2             0.0021    -0.0041     0.0020 C.ar    
   3 C3             2.3948     0.0191    -0.0202 C.ar    
   4 C4             2.3756     1.4249    -0.0129 C.ar    
   5 C5             1.1624     2.0987     0.0022 C.ar    
   6 N6             3.6952    -0.3637    -0.0348 N.2     
   7 C7             4.4665     0.6967    -0.0369 C.2     
   8 N8             3.6970     1.8290    -0.0238 N.pl3   
   9 C9             5.9437     0.6731    -0.0514 C.2     
  10 C10            6.7565    -0.4840    -0.0656 C.2     
  11 C11            8.0504    -0.0800    -0.0760 C.2     
  12 N12            8.0626     1.2789    -0.0687 N.pl3   
  13 N13            6.7358     1.7273    -0.0591 N.2     
  14 N14            6.3043    -1.8135    -0.0685 N.am    
  15 C15            7.1922    -2.8273    -0.0827 C.2     
  16 O16            8.3851    -2.5907    -0.0929 O.2     
  17 C17            1.1863    -0.6848    -0.0125 C.ar    
  18 C18            6.7172    -4.2237    -0.0857 C.2     
  19 N19            5.4605    -4.6244    -0.0761 N.2     
  20 C20           -1.2971    -0.7677     0.0103 C.3     
  21 N21           -1.7325    -1.0083    -1.3719 N.3     
  22 C22           -2.8622    -1.9482    -1.4124 C.3     
  23 C23           -0.6185    -1.4969    -2.1976 C.3     
  24 C24           -1.1001    -1.6771    -3.6397 C.3     
  25 O25           -2.2178    -2.5691    -3.6558 O.3     
  26 C26           -3.3212    -2.1239    -2.8623 C.3     
  27 N27            5.4029    -5.9076    -0.0824 N.pl3   
  28 C28            6.6546    -6.4334    -0.0968 C.2     
  29 C29            7.5257    -5.3896    -0.1056 C.2     
  30 N30            8.9276    -5.4521    -0.1220 N.am    
  31 C31            9.5488    -6.6481    -0.1303 C.2     
  32 C32           11.0542    -6.7152    -0.1478 C.3     
  33 O33            8.8962    -7.6705    -0.1236 O.2     
  34 C34           11.4993    -8.1794    -0.1543 C.3     
  35 C35           13.0298    -8.2438    -0.1372 C.3     
  36 N36           13.5490    -7.4503    -1.2595 N.am    
  37 C37           13.1126    -6.0544    -1.3993 C.3     
  38 C38           11.5812    -6.0145    -1.4022 C.3     
  39 O39           14.7627    -9.1459    -2.0171 O.2     
  40 C40           14.4097    -7.9925    -2.1436 C.2     
  41 C41           14.9335    -7.1657    -3.2895 C.3     
  42 H42           -0.9614     1.9069     0.0169 H       
  43 H43            1.1417     3.1785     0.0079 H       
  44 H44            4.0192     2.7439    -0.0226 H       
  45 H45            8.9175    -0.7237    -0.0876 H       
  46 H46            8.8532     1.8409    -0.0733 H       
  47 H47            5.3528    -2.0021    -0.0603 H       
  48 H48            1.1893    -1.7648    -0.0176 H       
  49 H49           -1.1546    -1.7218     0.5177 H       
  50 H50           -2.0564    -0.1872     0.5345 H       
  51 H51           -2.5486    -2.9117    -1.0106 H       
  52 H52           -3.6848    -1.5545    -0.8153 H       
  53 H53            0.1967    -0.7737    -2.1738 H       
  54 H54           -0.2691    -2.4532    -1.8084 H       
  55 H55           -1.3993    -0.7112    -4.0468 H       
  56 H56           -0.2936    -2.0932    -4.2434 H       
  57 H57           -4.1211    -2.8632    -2.9038 H       
  58 H58           -3.6850    -1.1711    -3.2469 H       
  59 H59            4.5832    -6.4262    -0.0773 H       
  60 H60            6.9101    -7.4827    -0.1042 H       
  61 H61            9.4495    -4.6344    -0.1273 H       
  62 H62           11.4502    -6.2192     0.7383 H       
  63 H63           11.1041    -8.6837     0.7275 H       
  64 H64           11.1246    -8.6696    -1.0529 H       
  65 H65           13.4022    -7.8354     0.8022 H       
  66 H66           13.3531    -9.2795    -0.2415 H       
  67 H67           13.4918    -5.4675    -0.5628 H       
  68 H68           13.4906    -5.6455    -2.3363 H       
  69 H69           11.2057    -6.5251    -2.2890 H       
  70 H70           11.2443    -4.9779    -1.4086 H       
  71 H71           15.6113    -7.7692    -3.8931 H       
  72 H72           14.0997    -6.8295    -3.9059 H       
  73 H73           15.4682    -6.3001    -2.8984 H       
@<TRIPOS>BOND
   1    1    2 ar
   2    1    5 ar
   3    1   42 1
   4    2   17 ar
   5    2   20 1
   6    3    4 ar
   7    3    6 1
   8    3   17 ar
   9    4    5 ar
  10    4    8 1
  11    5   43 1
  12    6    7 2
  13    7    8 1
  14    7    9 1
  15    8   44 1
  16    9   10 1
  17    9   13 2
  18   10   11 2
  19   10   14 1
  20   11   12 1
  21   11   45 1
  22   12   13 1
  23   12   46 1
  24   14   15 am
  25   14   47 1
  26   15   16 2
  27   15   18 1
  28   17   48 1
  29   18   19 2
  30   18   29 1
  31   19   27 1
  32   20   21 1
  33   20   49 1
  34   20   50 1
  35   21   22 1
  36   21   23 1
  37   22   26 1
  38   22   51 1
  39   22   52 1
  40   23   24 1
  41   23   53 1
  42   23   54 1
  43   24   25 1
  44   24   55 1
  45   24   56 1
  46   25   26 1
  47   26   57 1
  48   26   58 1
  49   27   28 1
  50   27   59 1
  51   28   29 2
  52   28   60 1
  53   29   30 1
  54   30   31 am
  55   30   61 1
  56   31   32 1
  57   31   33 2
  58   32   34 1
  59   32   38 1
  60   32   62 1
  61   34   35 1
  62   34   63 1
  63   34   64 1
  64   35   36 1
  65   35   65 1
  66   35   66 1
  67   36   37 1
  68   36   40 am
  69   37   38 1
  70   37   67 1
  71   37   68 1
  72   38   69 1
  73   38   70 1
  74   39   40 2
  75   40   41 1
  76   41   71 1
  77   41   72 1
  78   41   73 1

#	End of record

