#	Name: ASD04880169
#	Creating user name:	WinNT
#	Creation time:	15. 06. 2019 20:52

#	Modifying user name:	WinNT
#	Modification time:	15. 06. 2019 20:52

#	Program:	/corina/corina34_cracker 3.40 0067  02.08.2006

@<TRIPOS>MOLECULE
ASD04880169
  49   51    0    0    0
SMALL
NO_CHARGES


@<TRIPOS>ATOM
   1 C1            -0.0144     1.2118     0.0087 C.2     
   2 O2             0.0630    -0.0015    -0.0138 O.2     
   3 C3             1.2153     2.0315    -0.0200 C.ar    
   4 C4             1.1286     3.4191    -0.1386 C.ar    
   5 C5             2.2834     4.1833    -0.1652 C.ar    
   6 C6             3.5251     3.5711    -0.0745 C.ar    
   7 C7             3.6159     2.1917     0.0436 C.ar    
   8 C8             2.4660     1.4203     0.0772 C.ar    
   9 N9            -1.2216     1.8092     0.0542 N.am    
  10 N10           -1.4440     3.1775     0.1958 N.2     
  11 C11           -2.6890     3.5095     0.2126 C.2     
  12 C12           -3.5440     2.2707     0.0688 C.3     
  13 C13           -2.5201     1.1238    -0.0440 C.3     
  14 C14           -3.2007     4.8849     0.3512 C.ar    
  15 C15           -2.3101     5.9542     0.4775 C.ar    
  16 C16           -2.7955     7.2420     0.6071 C.ar    
  17 C17           -4.1696     7.4715     0.6122 C.ar    
  18 C18           -5.0542     6.4100     0.4873 C.ar    
  19 C19           -4.5775     5.1233     0.3508 C.ar    
  20 O20           -4.6449     8.7386     0.7403 O.3     
  21 C21           -6.0645     8.9024     0.7377 C.3     
  22 O22           -1.9315     8.2850     0.7303 O.3     
  23 C23           -0.5363     7.9767     0.7176 C.3     
  24 O24            2.2001     5.5349    -0.2807 O.3     
  25 C25            3.4306     6.2613    -0.3016 C.3     
  26 O26            4.8347     1.5970     0.1321 O.3     
  27 C27            5.9783     2.4532     0.0970 C.3     
  28 H28            0.1625     3.8965    -0.2100 H       
  29 H29            4.4236     4.1699    -0.0962 H       
  30 H30            2.5374     0.3470     0.1736 H       
  31 H31           -4.1764     2.1387     0.9467 H       
  32 H32           -4.1501     2.3274    -0.8353 H       
  33 H33           -2.6142     0.6161    -1.0039 H       
  34 H34           -2.6448     0.4188     0.7779 H       
  35 H35           -1.2451     5.7750     0.4741 H       
  36 H36           -6.1187     6.5924     0.4924 H       
  37 H37           -5.2683     4.2995     0.2485 H       
  38 H38           -6.3085     9.9591     0.8467 H       
  39 H39           -6.4714     8.5306    -0.2027 H       
  40 H40           -6.4963     8.3424     1.5671 H       
  41 H41           -0.2795     7.4934    -0.2250 H       
  42 H42            0.0400     8.8958     0.8235 H       
  43 H43           -0.3050     7.3056     1.5448 H       
  44 H44            3.9756     6.0795     0.6246 H       
  45 H45            4.0328     5.9315    -1.1482 H       
  46 H46            3.2219     7.3268    -0.3973 H       
  47 H47            6.8844     1.8525     0.1761 H       
  48 H48            5.9897     3.0060    -0.8423 H       
  49 H49            5.9332     3.1540     0.9306 H       
@<TRIPOS>BOND
   1    1    2 2
   2    1    3 1
   3    1    9 am
   4    3    4 ar
   5    3    8 ar
   6    4    5 ar
   7    4   28 1
   8    5    6 ar
   9    5   24 1
  10    6    7 ar
  11    6   29 1
  12    7    8 ar
  13    7   26 1
  14    8   30 1
  15    9   10 1
  16    9   13 1
  17   10   11 2
  18   11   12 1
  19   11   14 1
  20   12   13 1
  21   12   31 1
  22   12   32 1
  23   13   33 1
  24   13   34 1
  25   14   15 ar
  26   14   19 ar
  27   15   16 ar
  28   15   35 1
  29   16   17 ar
  30   16   22 1
  31   17   18 ar
  32   17   20 1
  33   18   19 ar
  34   18   36 1
  35   19   37 1
  36   20   21 1
  37   21   38 1
  38   21   39 1
  39   21   40 1
  40   22   23 1
  41   23   41 1
  42   23   42 1
  43   23   43 1
  44   24   25 1
  45   25   44 1
  46   25   45 1
  47   25   46 1
  48   26   27 1
  49   27   47 1
  50   27   48 1
  51   27   49 1

#	End of record

