#	Name: ASD08150264
#	Creating user name:	WinNT
#	Creation time:	15. 06. 2019 21:15

#	Modifying user name:	WinNT
#	Modification time:	15. 06. 2019 21:15

#	Program:	/corina/corina34_cracker 3.40 0067  02.08.2006

@<TRIPOS>MOLECULE
ASD08150264
  14   15    0    0    0
SMALL
NO_CHARGES


@<TRIPOS>ATOM
   1 C1            -0.0158     1.3115     0.0093 C.ar    
   2 N2             0.0021    -0.0041     0.0020 N.ar    
   3 C3             1.1561    -0.6643    -0.0125 C.ar    
   4 C4             2.3565     0.0777    -0.0200 C.ar    
   5 C5             2.2828     1.4709    -0.0122 C.ar    
   6 N6             1.0869     2.0393     0.0026 N.ar    
   7 N7             1.5003    -1.9878    -0.0225 N.pl3   
   8 C8             3.4419    -0.9034    -0.0351 C.2     
   9 C9             2.8680    -2.1182    -0.0359 C.2     
  10 F10            4.7667    -0.6386    -0.0468 F       
  11 Cl11           3.7253     2.4368    -0.0212 Cl      
  12 H12           -0.9702     1.8168     0.0164 H       
  13 H13            0.8712    -2.7262    -0.0204 H       
  14 H14            3.4020    -3.0569    -0.0457 H       
@<TRIPOS>BOND
   1    1    2 ar
   2    1    6 ar
   3    1   12 1
   4    2    3 ar
   5    3    4 ar
   6    3    7 1
   7    4    5 ar
   8    4    8 1
   9    5    6 ar
  10    5   11 1
  11    7    9 1
  12    7   13 1
  13    8    9 2
  14    8   10 1
  15    9   14 1

#	End of record

