#	Name: ASD02038903
#	Creating user name:	WinNT
#	Creation time:	15. 06. 2019 20:17

#	Modifying user name:	WinNT
#	Modification time:	15. 06. 2019 20:17

#	Program:	/corina/corina34_cracker 3.40 0067  02.08.2006

@<TRIPOS>MOLECULE
ASD02038903
  52   53    0    0    0
SMALL
NO_CHARGES


@<TRIPOS>ATOM
   1 C1            -1.6120     2.6795     0.6000 C.2     
   2 C2            -2.0377     2.7303    -0.8447 C.3     
   3 C3            -2.6217     4.1097    -1.1561 C.3     
   4 C4            -3.1673     4.1217    -2.5855 C.3     
   5 O5            -2.3292     2.1622     1.4234 O.2     
   6 O6            -0.4335     3.2041     0.9713 O.3     
   7 C7            -2.6785     0.4410    -1.3791 C.2     
   8 O8            -1.5041     0.1746    -1.5228 O.2     
   9 N9            -3.0529     1.7032    -1.0910 N.am    
  10 N10           -4.8579    -0.3612    -0.6283 N.3     
  11 C11           -3.7192    -0.6395    -1.5227 C.3     
  12 C12           -4.2647    -0.6545    -2.9662 C.3     
  13 C13           -5.5701     0.1765    -2.8551 C.3     
  14 C14           -6.0801    -0.2283    -1.4495 C.3     
  15 C15           -3.1080    -1.9995    -1.1795 C.3     
  16 C16           -2.6491    -1.9961     0.2560 C.ar    
  17 C17           -3.5225    -2.3657     1.2617 C.ar    
  18 C18           -3.1016    -2.3625     2.5784 C.ar    
  19 C19           -1.8072    -1.9903     2.8893 C.ar    
  20 C20           -0.9335    -1.6216     1.8835 C.ar    
  21 C21           -1.3531    -1.6289     0.5664 C.ar    
  22 O22           -3.6970     4.4015    -0.2251 O.3     
  23 C23           -3.9038     5.6917     0.0820 C.2     
  24 O24           -3.2093     6.5489    -0.4107 O.2     
  25 C25           -5.0022     6.0712     1.0415 C.3     
  26 C26           -0.0858     3.1141     2.3782 C.3     
  27 H27           -1.1742     2.5484    -1.4845 H       
  28 H28           -1.8417     4.8649    -1.0587 H       
  29 H29           -3.5833     5.1044    -2.8074 H       
  30 H30           -2.3600     3.9026    -3.2844 H       
  31 H31           -3.9472     3.3665    -2.6830 H       
  32 H32           -3.9946     1.9317    -1.0467 H       
  33 H33           -4.9629    -1.0905     0.0610 H       
  34 H34           -3.5613    -0.1778    -3.6489 H       
  35 H35           -4.4826    -1.6737    -3.2852 H       
  36 H36           -5.3581     1.2447    -2.9009 H       
  37 H37           -6.2834    -0.1119    -3.6273 H       
  38 H38           -6.6102    -1.1795    -1.4976 H       
  39 H39           -6.7280     0.5481    -1.0428 H       
  40 H40           -3.8560    -2.7798    -1.3200 H       
  41 H41           -2.2566    -2.1904    -1.8327 H       
  42 H42           -4.5339    -2.6565     1.0188 H       
  43 H43           -3.7842    -2.6506     3.3642 H       
  44 H44           -1.4785    -1.9872     3.9181 H       
  45 H45            0.0778    -1.3304     2.1265 H       
  46 H46           -0.6694    -1.3444    -0.2198 H       
  47 H47           -5.5167     5.1715     1.3790 H       
  48 H48           -4.5725     6.5877     1.8998 H       
  49 H49           -5.7119     6.7289     0.5396 H       
  50 H50            0.8884     3.5748     2.5419 H       
  51 H51           -0.8378     3.6334     2.9723 H       
  52 H52           -0.0470     2.0664     2.6765 H       
@<TRIPOS>BOND
   1    1    5 2
   2    1    6 1
   3    1    2 1
   4    2    3 1
   5    2    9 1
   6    2   27 1
   7    3    4 1
   8    3   22 1
   9    3   28 1
  10    4   29 1
  11    4   30 1
  12    4   31 1
  13    6   26 1
  14    7    8 2
  15    7    9 am
  16    7   11 1
  17    9   32 1
  18   10   11 1
  19   10   14 1
  20   10   33 1
  21   11   12 1
  22   11   15 1
  23   12   13 1
  24   12   34 1
  25   12   35 1
  26   13   14 1
  27   13   36 1
  28   13   37 1
  29   14   38 1
  30   14   39 1
  31   15   16 1
  32   15   40 1
  33   15   41 1
  34   16   17 ar
  35   16   21 ar
  36   17   18 ar
  37   17   42 1
  38   18   19 ar
  39   18   43 1
  40   19   20 ar
  41   19   44 1
  42   20   21 ar
  43   20   45 1
  44   21   46 1
  45   22   23 1
  46   23   24 2
  47   23   25 1
  48   25   47 1
  49   25   48 1
  50   25   49 1
  51   26   50 1
  52   26   51 1
  53   26   52 1

#	End of record

