#	Name: ASD05940090
#	Creating user name:	WinNT
#	Creation time:	15. 06. 2019 21:04

#	Modifying user name:	WinNT
#	Modification time:	15. 06. 2019 21:04

#	Program:	/corina/corina34_cracker 3.40 0067  02.08.2006

@<TRIPOS>MOLECULE
ASD05940090
  70   74    0    0    0
SMALL
NO_CHARGES


@<TRIPOS>ATOM
   1 N1             0.7127     1.9059     0.0788 N.ar    
   2 C2             0.4793     0.6055     0.0206 C.ar    
   3 N3             1.4510    -0.2951    -0.0098 N.ar    
   4 C4             2.7237     0.1061     0.0182 C.ar    
   5 C5             2.9954     1.4445     0.0995 C.ar    
   6 C6             1.9647     2.3744     0.1208 C.ar    
   7 N7             2.2235     3.7370     0.1823 N.pl3   
   8 O8            -0.8058     0.1764    -0.0088 O.3     
   9 C9            -1.8250     1.1775     0.0260 C.3     
  10 C10           -3.1997     0.5072    -0.0145 C.3     
  11 N11            3.7601    -0.8151    -0.0651 N.3     
  12 C12            4.3020    -0.9089    -1.3801 C.3     
  13 C13            4.7036     0.5453    -1.8568 C.3     
  14 C14            5.1859     1.4007    -0.7783 C.2     
  15 N15            4.3638     1.8401     0.1929 N.am    
  16 O16            6.3550     1.7238    -0.7561 O.2     
  17 C17            3.3334    -2.1331     0.4236 C.3     
  18 C18            3.0369    -2.0500     1.8988 C.ar    
  19 C19            1.7377    -1.8670     2.3334 C.ar    
  20 C20            1.4658    -1.7907     3.6867 C.ar    
  21 C21            2.4930    -1.8978     4.6052 C.ar    
  22 C22            3.7925    -2.0818     4.1705 C.ar    
  23 C23            4.0638    -2.1624     2.8177 C.ar    
  24 C24           -4.2910     1.5790     0.0227 C.3     
  25 C25           -5.6657     0.9088    -0.0179 C.3     
  26 N26            5.0964    -3.6085     5.5394 N.3     
  27 C27            6.3281    -3.7928     6.3287 C.3     
  28 C28            5.9219    -4.4549     7.6621 C.3     
  29 C29            4.5655    -5.1257     7.3203 C.3     
  30 C30            3.9508    -4.1030     6.3324 C.3     
  31 C31            4.9127    -2.1982     5.1720 C.3     
  32 C32            3.7862    -1.5203    -2.6427 C.3     
  33 C33            4.7605    -0.9519    -3.7251 C.3     
  34 C34            5.6513     0.1079    -2.9964 C.3     
  35 H35            3.1391     4.0560     0.2114 H       
  36 H36            1.4888     4.3701     0.1963 H       
  37 H37           -1.7314     1.7596     0.9428 H       
  38 H38           -1.7165     1.8365    -0.8355 H       
  39 H39           -3.2933    -0.0749    -0.9313 H       
  40 H40           -3.3082    -0.1518     0.8469 H       
  41 H41            5.2798    -1.3708    -1.2439 H       
  42 H42            3.8282     1.0123    -2.3079 H       
  43 H43            4.6849     2.3970     0.9193 H       
  44 H44            2.4360    -2.4456    -0.1103 H       
  45 H45            4.1287    -2.8587     0.2532 H       
  46 H46            0.9350    -1.7833     1.6157 H       
  47 H47            0.4506    -1.6470     4.0263 H       
  48 H48            2.2807    -1.8375     5.6624 H       
  49 H49            5.0790    -2.3061     2.4782 H       
  50 H50           -4.1974     2.1611     0.9395 H       
  51 H51           -4.1825     2.2380    -0.8388 H       
  52 H52           -6.4431     1.6723     0.0086 H       
  53 H53           -5.7593     0.3267    -0.9347 H       
  54 H54           -5.7742     0.2498     0.8436 H       
  55 H55            7.0207    -4.4391     5.7896 H       
  56 H56            6.7932    -2.8260     6.5213 H       
  57 H57            6.6570    -5.2022     7.9610 H       
  58 H58            5.7949    -3.7042     8.4422 H       
  59 H59            4.7179    -6.0913     6.8381 H       
  60 H60            3.9457    -5.2293     8.2109 H       
  61 H61            3.4840    -3.2824     6.8773 H       
  62 H62            3.2233    -4.5916     5.6842 H       
  63 H63            5.8336    -1.8141     4.7333 H       
  64 H64            4.6656    -1.6199     6.0623 H       
  65 H65            3.8493    -2.6076    -2.5991 H       
  66 H66            2.7629    -1.1992    -2.8373 H       
  67 H67            5.3825    -1.7519    -4.1266 H       
  68 H68            4.1945    -0.4780    -4.5270 H       
  69 H69            5.8868     0.9438    -3.6551 H       
  70 H70            6.5594    -0.3467    -2.6005 H       
@<TRIPOS>BOND
   1    1    2 ar
   2    1    6 ar
   3    2    3 ar
   4    2    8 1
   5    3    4 ar
   6    4    5 ar
   7    4   11 1
   8    5    6 ar
   9    5   15 1
  10    6    7 1
  11    7   35 1
  12    7   36 1
  13    8    9 1
  14    9   10 1
  15    9   37 1
  16    9   38 1
  17   10   24 1
  18   10   39 1
  19   10   40 1
  20   11   12 1
  21   11   17 1
  22   12   13 1
  23   12   32 1
  24   12   41 1
  25   13   14 1
  26   13   34 1
  27   13   42 1
  28   14   15 am
  29   14   16 2
  30   15   43 1
  31   17   18 1
  32   17   44 1
  33   17   45 1
  34   18   19 ar
  35   18   23 ar
  36   19   20 ar
  37   19   46 1
  38   20   21 ar
  39   20   47 1
  40   21   22 ar
  41   21   48 1
  42   22   23 ar
  43   22   31 1
  44   23   49 1
  45   24   25 1
  46   24   50 1
  47   24   51 1
  48   25   52 1
  49   25   53 1
  50   25   54 1
  51   26   27 1
  52   26   31 1
  53   26   30 1
  54   27   28 1
  55   27   55 1
  56   27   56 1
  57   28   29 1
  58   28   57 1
  59   28   58 1
  60   29   30 1
  61   29   59 1
  62   29   60 1
  63   30   61 1
  64   30   62 1
  65   31   63 1
  66   31   64 1
  67   32   33 1
  68   32   65 1
  69   32   66 1
  70   33   34 1
  71   33   67 1
  72   33   68 1
  73   34   69 1
  74   34   70 1

#	End of record

