#	Name: ASD01708032
#	Creating user name:	WinNT
#	Creation time:	15. 06. 2019 19:22

#	Modifying user name:	WinNT
#	Modification time:	15. 06. 2019 19:22

#	Program:	/corina/corina34_cracker 3.40 0067  02.08.2006

@<TRIPOS>MOLECULE
ASD01708032
  67   70    0    0    0
SMALL
NO_CHARGES


@<TRIPOS>ATOM
   1 C1             0.0129     1.4503    -0.0321 C.ar    
   2 C2             1.1376     2.0030     0.5841 C.ar    
   3 C3             0.0896     0.1905    -0.6549 C.ar    
   4 C4             1.2918    -0.4968    -0.6519 C.ar    
   5 C5             2.4076     0.0657    -0.0341 C.ar    
   6 C6             2.3178     1.3200     0.5836 C.ar    
   7 C7             3.6902    -0.6649    -0.0290 C.2     
   8 N8             3.6995    -2.0094     0.0646 N.am    
   9 O9             4.7382    -0.0538    -0.1093 O.2     
  10 C10            4.9498    -2.7771    -0.0586 C.3     
  11 C11            2.4655    -2.7664     0.2992 C.3     
  12 C12            2.7099    -3.8258     1.3453 C.ar    
  13 C13            3.9760    -4.1495     1.7831 C.ar    
  14 C14            5.2117    -3.4647     1.2803 C.3     
  15 C15            1.6024    -4.4829     1.8680 C.ar    
  16 C16            1.7517    -5.4669     2.8208 C.ar    
  17 C17            3.0326    -5.8076     3.2647 C.ar    
  18 C18            4.1397    -5.1428     2.7396 C.ar    
  19 Cl19           5.7341    -5.5601     3.2848 Cl      
  20 Cl20           0.3587    -6.2776     3.4658 Cl      
  21 C21            3.2116    -6.8633     4.2819 C.2     
  22 N22            3.2133    -6.5441     5.5914 N.am    
  23 O23            3.3574    -8.0202     3.9381 O.2     
  24 C24            3.3909    -7.5912     6.6004 C.3     
  25 C25            2.0587    -8.2263     6.9051 C.2     
  26 O26            1.9782    -9.2173     7.8069 O.3     
  27 O27            1.0630    -7.8435     6.3377 O.2     
  28 C28            3.9669    -6.9764     7.8775 C.3     
  29 N29            5.2025    -6.2567     7.5589 N.pl3   
  30 C30           -1.3708     1.8957    -0.2204 C.2     
  31 C31           -1.9900     0.9185    -0.9003 C.2     
  32 O32           -1.1322    -0.0830    -1.1567 O.3     
  33 C33            5.8981    -5.6224     8.5487 C.2     
  34 N34            5.4565    -5.6580     9.7938 N.2     
  35 N35            7.0502    -4.9513     8.2516 N.pl3   
  36 C36            6.1972    -5.1168    10.7911 C.1     
  37 N37            6.8181    -4.6630    11.6272 N.1     
  38 C38            7.4822    -4.8188     6.8580 C.3     
  39 C39            9.0091    -4.7397     6.8026 C.3     
  40 O40            9.4478    -3.5435     7.4497 O.3     
  41 C41            6.8833    -3.5455     6.2573 C.3     
  42 H42            1.0728     2.9702     1.0602 H       
  43 H43            1.3645    -1.4645    -1.1259 H       
  44 H44            3.1873     1.7484     1.0600 H       
  45 H45            4.8470    -3.5260    -0.8439 H       
  46 H46            5.7740    -2.1043    -0.2951 H       
  47 H47            1.6845    -2.0890     0.6447 H       
  48 H48            2.1486    -3.2404    -0.6297 H       
  49 H49            6.0025    -4.2033     1.1489 H       
  50 H50            5.5330    -2.7229     2.0114 H       
  51 H51            0.6134    -4.2189     1.5237 H       
  52 H52            3.0970    -5.6210     5.8657 H       
  53 H53            4.0763    -8.3490     6.2208 H       
  54 H54            1.1022    -9.5934     7.9688 H       
  55 H55            3.2428    -6.2833     8.3057 H       
  56 H56            4.1820    -7.7670     8.5964 H       
  57 H57            5.5266    -6.2306     6.6450 H       
  58 H58           -1.8050     2.8242     0.1199 H       
  59 H59           -3.0271     0.9362    -1.2012 H       
  60 H60            7.5824    -4.5625     8.9633 H       
  61 H61            7.1423    -5.6839     6.2885 H       
  62 H62            9.4364    -5.6047     7.3097 H       
  63 H63            9.3350    -4.7306     5.7625 H       
  64 H64           10.4078    -3.4272     7.4525 H       
  65 H65            5.7955    -3.6019     6.2967 H       
  66 H66            7.2232    -2.6804     6.8268 H       
  67 H67            7.2047    -3.4469     5.2204 H       
@<TRIPOS>BOND
   1    1    2 ar
   2    1    3 ar
   3    1   30 1
   4    2    6 ar
   5    2   42 1
   6    3    4 ar
   7    3   32 1
   8    4    5 ar
   9    4   43 1
  10    5    6 ar
  11    5    7 1
  12    6   44 1
  13    7    8 am
  14    7    9 2
  15    8   10 1
  16    8   11 1
  17   10   14 1
  18   10   45 1
  19   10   46 1
  20   11   12 1
  21   11   47 1
  22   11   48 1
  23   12   13 ar
  24   12   15 ar
  25   13   14 1
  26   13   18 ar
  27   14   49 1
  28   14   50 1
  29   15   16 ar
  30   15   51 1
  31   16   17 ar
  32   16   20 1
  33   17   18 ar
  34   17   21 1
  35   18   19 1
  36   21   22 am
  37   21   23 2
  38   22   24 1
  39   22   52 1
  40   24   25 1
  41   24   28 1
  42   24   53 1
  43   25   26 1
  44   25   27 2
  45   26   54 1
  46   28   29 1
  47   28   55 1
  48   28   56 1
  49   29   33 1
  50   29   57 1
  51   30   31 2
  52   30   58 1
  53   31   32 1
  54   31   59 1
  55   33   34 2
  56   33   35 1
  57   34   36 1
  58   35   38 1
  59   35   60 1
  60   36   37 3
  61   38   39 1
  62   38   41 1
  63   38   61 1
  64   39   40 1
  65   39   62 1
  66   39   63 1
  67   40   64 1
  68   41   65 1
  69   41   66 1
  70   41   67 1

#	End of record

