#	Name: ASD01882862
#	Creating user name:	WinNT
#	Creation time:	15. 06. 2019 19:45

#	Modifying user name:	WinNT
#	Modification time:	15. 06. 2019 19:45

#	Program:	/corina/corina34_cracker 3.40 0067  02.08.2006

@<TRIPOS>MOLECULE
ASD01882862
  41   43    0    0    0
SMALL
NO_CHARGES


@<TRIPOS>ATOM
   1 C1            -0.0140     1.3991     0.0598 C.2     
   2 C2            -0.0037     0.0039    -0.1391 C.2     
   3 C3            -1.1833    -0.6707    -0.1724 C.2     
   4 C4            -2.3939     0.0274    -0.0089 C.2     
   5 C5            -2.3921     1.3624     0.1804 C.2     
   6 N6            -1.2147     2.0547     0.2235 N.pl3   
   7 C7            -1.1945    -2.1626    -0.3844 C.3     
   8 O8            -1.9561    -2.7854     0.6520 O.3     
   9 C9             1.3000    -0.7315    -0.3134 C.3     
  10 C10           -1.5946    -4.0469     1.0112 C.ar    
  11 C11           -1.8251    -2.4802    -1.7418 C.3     
  12 N12            0.9356     2.3133     0.1394 N.2     
  13 N13            0.4065     3.4702     0.3319 N.2     
  14 C14           -0.9001     3.3690     0.3918 C.2     
  15 O15           -1.7769     4.3864     0.5879 O.3     
  16 F16            1.1953    -1.6173    -1.3912 F       
  17 F17            2.3243     0.1880    -0.5634 F       
  18 F18            1.5908    -1.4479     0.8525 F       
  19 C19           -0.6583    -4.2417     2.0173 C.ar    
  20 C20           -0.2920    -5.5255     2.3812 C.ar    
  21 C21           -0.8587    -6.6153     1.7426 C.ar    
  22 C22           -1.7924    -6.4231     0.7387 C.ar    
  23 C23           -2.1659    -5.1410     0.3761 C.ar    
  24 F24           -3.0816    -4.9541    -0.5995 F       
  25 F25           -0.4997    -7.8679     2.0993 F       
  26 C26           -1.2267     5.6963     0.7418 C.3     
  27 C27           -2.3591     6.7036     0.9514 C.3     
  28 F28           -0.1046    -3.1785     2.6405 F       
  29 H29           -3.3307    -0.5094    -0.0355 H       
  30 H30           -3.3277     1.8876     0.3044 H       
  31 H31           -0.1724    -2.5406    -0.3614 H       
  32 H32           -1.8332    -3.5593    -1.8952 H       
  33 H33           -2.8472    -2.1022    -1.7649 H       
  34 H34           -1.2442    -2.0051    -2.5324 H       
  35 H35            0.4368    -5.6774     3.1636 H       
  36 H36           -2.2331    -7.2746     0.2414 H       
  37 H37           -0.5620     5.7120     1.6054 H       
  38 H38           -0.6652     5.9621    -0.1539 H       
  39 H39           -3.0239     6.6879     0.0877 H       
  40 H40           -2.9206     6.4379     1.8470 H       
  41 H41           -1.9395     7.7028     1.0688 H       
@<TRIPOS>BOND
   1    1    2 1
   2    1   12 2
   3    1    6 1
   4    2    9 1
   5    2    3 2
   6    3    4 1
   7    3    7 1
   8    4    5 2
   9    4   29 1
  10    5    6 1
  11    5   30 1
  12    6   14 1
  13    7    8 1
  14    7   11 1
  15    7   31 1
  16    8   10 1
  17    9   16 1
  18    9   17 1
  19    9   18 1
  20   10   19 ar
  21   10   23 ar
  22   11   32 1
  23   11   33 1
  24   11   34 1
  25   12   13 1
  26   13   14 2
  27   14   15 1
  28   15   26 1
  29   19   20 ar
  30   19   28 1
  31   20   21 ar
  32   20   35 1
  33   21   22 ar
  34   21   25 1
  35   22   23 ar
  36   22   36 1
  37   23   24 1
  38   26   27 1
  39   26   37 1
  40   26   38 1
  41   27   39 1
  42   27   40 1
  43   27   41 1

#	End of record

