#	Name: ASD01812528
#	Creating user name:	WinNT
#	Creation time:	15. 06. 2019 19:28

#	Modifying user name:	WinNT
#	Modification time:	15. 06. 2019 19:28

#	Program:	/corina/corina34_cracker 3.40 0067  02.08.2006

@<TRIPOS>MOLECULE
ASD01812528
  64   69    0    0    0
SMALL
NO_CHARGES


@<TRIPOS>ATOM
   1 C1            -0.0177     1.4558     0.0100 C.ar    
   2 C2             0.0021    -0.0041     0.0020 C.ar    
   3 C3            -1.2308    -0.7010     0.0105 C.ar    
   4 C4            -2.4444     0.0180     0.0269 C.ar    
   5 C5            -2.4560     1.3723     0.0347 C.ar    
   6 C6            -1.2625     2.1109     0.0315 C.ar    
   7 C7            -1.2224    -2.1043     0.0029 C.ar    
   8 C8            -0.0350    -2.7735    -0.0125 C.ar    
   9 C9             1.1742    -2.0857    -0.0208 C.ar    
  10 C10            1.2024    -0.7216    -0.0133 C.ar    
  11 N11            1.1113     2.1840     0.0032 N.2     
  12 C12            1.0865     3.4849     0.0109 C.2     
  13 N13           -0.0634     4.2041     0.0267 N.am    
  14 C14           -1.2638     3.5794     0.0393 C.2     
  15 C15           -3.7505    -0.7338     0.0354 C.3     
  16 C16           -4.1100    -1.1002     1.4522 C.ar    
  17 C17           -3.6797    -2.2968     1.9939 C.ar    
  18 C18           -4.8714    -0.2367     2.2274 C.ar    
  19 C19           -5.1795    -0.6102     3.5238 C.ar    
  20 C20           -4.7172    -1.8338     4.0038 C.ar    
  21 N21           -3.9874    -2.6287     3.2317 N.ar    
  22 O22           -2.3051     4.2108     0.0573 O.2     
  23 C23           -5.0384    -2.2485     5.3913 C.2     
  24 C24           -0.0054     5.6680     0.0349 C.3     
  25 C25            0.7230     6.1566    -1.2187 C.3     
  26 C26            0.7835     7.6854    -1.2101 C.3     
  27 C27            1.5368     8.1589     0.0346 C.3     
  28 C28            0.8084     7.6703     1.2883 C.3     
  29 C29            0.7478     6.1415     1.2796 C.3     
  30 C30           -0.0303     5.6831    -2.4634 C.3     
  31 C31           -5.8745    -1.5614     6.2936 C.2     
  32 N32           -5.9089    -2.2385     7.4103 N.2     
  33 N33           -5.1036    -3.3748     7.2671 N.pl3   
  34 C34           -4.5825    -3.3687     6.0248 C.2     
  35 C35           -4.8718    -4.3973     8.2903 C.3     
  36 H36           -3.4017     1.8938     0.0469 H       
  37 H37           -2.1532    -2.6519     0.0096 H       
  38 H38           -0.0330    -3.8535    -0.0179 H       
  39 H39            2.1020    -2.6383    -0.0326 H       
  40 H40            2.1472    -0.1984    -0.0200 H       
  41 H41            2.0262     4.0173     0.0047 H       
  42 H42           -4.5342    -0.1052    -0.3874 H       
  43 H43           -3.6513    -1.6410    -0.5606 H       
  44 H44           -3.0836    -2.9691     1.3947 H       
  45 H45           -5.2155     0.7058     1.8279 H       
  46 H46           -5.7698     0.0378     4.1547 H       
  47 H47           -1.0178     6.0716     0.0474 H       
  48 H48            1.7354     5.7529    -1.2312 H       
  49 H49            1.3025     8.0335    -2.1032 H       
  50 H50           -0.2289     8.0891    -1.1975 H       
  51 H51            2.5492     7.7553     0.0221 H       
  52 H52            1.5800     9.2480     0.0408 H       
  53 H53            1.3451     8.0076     2.1750 H       
  54 H54           -0.2040     8.0739     1.3008 H       
  55 H55            0.2289     5.7934     2.1727 H       
  56 H56            1.7603     5.7378     1.2671 H       
  57 H57           -1.0427     6.0867    -2.4509 H       
  58 H58            0.4886     6.0312    -3.3565 H       
  59 H59           -0.0734     4.5940    -2.4695 H       
  60 H60           -6.3957    -0.6362     6.0966 H       
  61 H61           -3.9223    -4.1139     5.6065 H       
  62 H62           -5.6235    -5.1812     8.1974 H       
  63 H63           -3.8795    -4.8277     8.1556 H       
  64 H64           -4.9400    -3.9438     9.2791 H       
@<TRIPOS>BOND
   1    1    2 ar
   2    1   11 1
   3    1    6 ar
   4    2   10 ar
   5    2    3 ar
   6    3    4 ar
   7    3    7 ar
   8    4    5 ar
   9    4   15 1
  10    5    6 ar
  11    5   36 1
  12    6   14 1
  13    7    8 ar
  14    7   37 1
  15    8    9 ar
  16    8   38 1
  17    9   10 ar
  18    9   39 1
  19   10   40 1
  20   11   12 2
  21   12   13 1
  22   12   41 1
  23   13   14 am
  24   13   24 1
  25   14   22 2
  26   15   16 1
  27   15   42 1
  28   15   43 1
  29   16   18 ar
  30   16   17 ar
  31   17   21 ar
  32   17   44 1
  33   18   19 ar
  34   18   45 1
  35   19   20 ar
  36   19   46 1
  37   20   21 ar
  38   20   23 1
  39   23   31 1
  40   23   34 2
  41   24   25 1
  42   24   29 1
  43   24   47 1
  44   25   26 1
  45   25   30 1
  46   25   48 1
  47   26   27 1
  48   26   49 1
  49   26   50 1
  50   27   28 1
  51   27   51 1
  52   27   52 1
  53   28   29 1
  54   28   53 1
  55   28   54 1
  56   29   55 1
  57   29   56 1
  58   30   57 1
  59   30   58 1
  60   30   59 1
  61   31   32 2
  62   31   60 1
  63   32   33 1
  64   33   34 1
  65   33   35 1
  66   34   61 1
  67   35   62 1
  68   35   63 1
  69   35   64 1

#	End of record

