#	Name: ASD01911391
#	Creating user name:	WinNT
#	Creation time:	15. 06. 2019 19:57

#	Modifying user name:	WinNT
#	Modification time:	15. 06. 2019 19:57

#	Program:	/corina/corina34_cracker 3.40 0067  02.08.2006

@<TRIPOS>MOLECULE
ASD01911391
  35   36    0    0    0
SMALL
NO_CHARGES


@<TRIPOS>ATOM
   1 C1            -0.0184     1.5028     0.0103 C.2     
   2 C2             0.0021    -0.0041     0.0020 C.3     
   3 C3             1.4295    -0.4870    -0.0142 C.2     
   4 O4             1.0191     2.1207     0.0037 O.2     
   5 O5             2.3405     0.3135    -0.0186 O.2     
   6 C6             1.7177    -1.9286    -0.0247 C.ar    
   7 C7             3.0421    -2.3804    -0.0398 C.ar    
   8 C8             3.3052    -3.7324    -0.0496 C.ar    
   9 C9             2.2609    -4.6455    -0.0446 C.ar    
  10 C10            0.9458    -4.2043    -0.0296 C.ar    
  11 C11            0.6689    -2.8550    -0.0139 C.ar    
  12 F12            2.5257    -5.9702    -0.0547 F       
  13 C13           -1.3335     2.2385     0.0205 C.3     
  14 C14           -1.1375     3.6251     0.6368 C.3     
  15 C15           -2.4728     4.3720     0.6472 C.3     
  16 C16           -2.9860     4.5190    -0.7866 C.3     
  17 C17           -3.1821     3.1324    -1.4029 C.3     
  18 C18           -1.8468     2.3855    -1.4133 C.3     
  19 H19           -0.4983    -0.3791     0.8948 H       
  20 H20           -0.5153    -0.3696    -0.8850 H       
  21 H21            3.8561    -1.6706    -0.0441 H       
  22 H22            4.3269    -4.0825    -0.0616 H       
  23 H23            0.1373    -4.9203    -0.0258 H       
  24 H24           -0.3553    -2.5128     0.0022 H       
  25 H25           -2.0588     1.6779     0.6104 H       
  26 H26           -0.7718     3.5203     1.6583 H       
  27 H27           -0.4122     4.1856     0.0469 H       
  28 H28           -3.1980     3.8115     1.2370 H       
  29 H29           -2.3331     5.3598     1.0862 H       
  30 H30           -3.9373     5.0511    -0.7792 H       
  31 H31           -2.2608     5.0795    -1.3765 H       
  32 H32           -3.9074     2.5719    -0.8130 H       
  33 H33           -3.5478     3.2372    -2.4244 H       
  34 H34           -1.1216     2.9460    -2.0031 H       
  35 H35           -1.9865     1.3977    -1.8523 H       
@<TRIPOS>BOND
   1    1    2 1
   2    1    4 2
   3    1   13 1
   4    2    3 1
   5    2   19 1
   6    2   20 1
   7    3    5 2
   8    3    6 1
   9    6    7 ar
  10    6   11 ar
  11    7    8 ar
  12    7   21 1
  13    8    9 ar
  14    8   22 1
  15    9   10 ar
  16    9   12 1
  17   10   11 ar
  18   10   23 1
  19   11   24 1
  20   13   14 1
  21   13   18 1
  22   13   25 1
  23   14   15 1
  24   14   26 1
  25   14   27 1
  26   15   16 1
  27   15   28 1
  28   15   29 1
  29   16   17 1
  30   16   30 1
  31   16   31 1
  32   17   18 1
  33   17   32 1
  34   17   33 1
  35   18   34 1
  36   18   35 1

#	End of record

