#	Name: ASD01814691
#	Creating user name:	WinNT
#	Creation time:	15. 06. 2019 19:32

#	Modifying user name:	WinNT
#	Modification time:	15. 06. 2019 19:32

#	Program:	/corina/corina34_cracker 3.40 0067  02.08.2006

@<TRIPOS>MOLECULE
ASD01814691
  44   47    0    0    0
SMALL
NO_CHARGES


@<TRIPOS>ATOM
   1 N1             0.0011     1.3073    -0.1972 N.2     
   2 C2             0.0226    -0.0032    -0.2606 C.2     
   3 C3             1.2444    -0.6877    -0.3338 C.2     
   4 C4             2.4030     0.0153    -0.3386 C.2     
   5 C5             1.1400     2.0129    -0.2012 C.2     
   6 N6             2.3533     1.3782    -0.2718 N.pl3   
   7 C7             2.7748     3.5461    -0.1833 C.2     
   8 N8             3.3475     2.3618    -0.2585 N.2     
   9 N9             1.8063     5.7410    -0.0472 N.am    
  10 C10            3.0819     5.0224    -0.1246 C.3     
  11 C11            1.4008     3.3766    -0.1454 C.2     
  12 C12            0.7439     4.7303    -0.0595 C.3     
  13 C13            1.6414     7.0769     0.0212 C.2     
  14 O14            0.5234     7.5532    -0.0014 O.2     
  15 C15            2.8205     7.9630     0.1237 C.ar    
  16 C16            2.8930     8.9187     1.1386 C.ar    
  17 C17            3.8684     7.8436    -0.7902 C.ar    
  18 C18            4.9659     8.6737    -0.6890 C.ar    
  19 C19            5.0289     9.6227     0.3157 C.ar    
  20 C20            3.9958     9.7423     1.2286 C.ar    
  21 C21            1.7687     9.0507     2.1333 C.3     
  22 F22            2.0698    10.0682     3.0451 F       
  23 C23           -1.2712    -0.7759    -0.2541 C.3     
  24 C24            1.2688    -2.1928    -0.4061 C.3     
  25 C25            3.7284    -0.6976    -0.4162 C.3     
  26 F26            0.5838     9.3645     1.4589 F       
  27 F27            1.6088     7.8421     2.8195 F       
  28 H28            3.6822     5.2391     0.7590 H       
  29 H29            3.6219     5.3241    -1.0221 H       
  30 H30            0.1579     4.7991     0.8570 H       
  31 H31            0.0983     4.8833    -0.9243 H       
  32 H32            3.8205     7.1030    -1.5748 H       
  33 H33            5.7777     8.5822    -1.3954 H       
  34 H34            5.8903    10.2697     0.3907 H       
  35 H35            4.0532    10.4822     2.0133 H       
  36 H36           -2.1090    -0.0813    -0.1928 H       
  37 H37           -1.3500    -1.3602    -1.1709 H       
  38 H38           -1.2904    -1.4452     0.6060 H       
  39 H39            0.2477    -2.5739    -0.3902 H       
  40 H40            1.7585    -2.5044    -1.3287 H       
  41 H41            1.8178    -2.5888     0.4482 H       
  42 H42            3.5601    -1.7736    -0.4618 H       
  43 H43            4.2626    -0.3753    -1.3100 H       
  44 H44            4.3212    -0.4597     0.4670 H       
@<TRIPOS>BOND
   1    1    2 2
   2    1    5 1
   3    2    3 1
   4    2   23 1
   5    3    4 2
   6    3   24 1
   7    4    6 1
   8    4   25 1
   9    5   11 2
  10    5    6 1
  11    6    8 1
  12    7    8 2
  13    7   11 1
  14    7   10 1
  15    9   10 1
  16    9   12 1
  17    9   13 am
  18   10   28 1
  19   10   29 1
  20   11   12 1
  21   12   30 1
  22   12   31 1
  23   13   14 2
  24   13   15 1
  25   15   17 ar
  26   15   16 ar
  27   16   20 ar
  28   16   21 1
  29   17   18 ar
  30   17   32 1
  31   18   19 ar
  32   18   33 1
  33   19   20 ar
  34   19   34 1
  35   20   35 1
  36   21   22 1
  37   21   26 1
  38   21   27 1
  39   23   36 1
  40   23   37 1
  41   23   38 1
  42   24   39 1
  43   24   40 1
  44   24   41 1
  45   25   42 1
  46   25   43 1
  47   25   44 1

#	End of record

