#	Name: ASD01028135
#	Creating user name:	WinNT
#	Creation time:	15. 06. 2019 18:56

#	Modifying user name:	WinNT
#	Modification time:	15. 06. 2019 18:56

#	Program:	/corina/corina34_cracker 3.40 0067  02.08.2006

@<TRIPOS>MOLECULE
ASD01028135
  56   59    0    0    0
SMALL
NO_CHARGES


@<TRIPOS>ATOM
   1 C1            -1.1413     1.2908    -1.3721 C.ar    
   2 C2            -0.9570    -0.0782    -1.4190 C.ar    
   3 C3             0.2712    -0.6265    -1.0755 C.ar    
   4 C4             1.3166     0.2041    -0.6837 C.ar    
   5 C5             1.1255     1.5805    -0.6382 C.ar    
   6 C6            -0.1053     2.1190    -0.9833 C.ar    
   7 O7             2.5988    -0.0724    -0.3029 O.3     
   8 C8             3.3104     1.1743    -0.4170 C.3     
   9 O9             2.2871     2.1695    -0.2287 O.3     
  10 N10            0.4577    -2.0134    -1.1228 N.pl3   
  11 C11            1.5206    -2.5431    -1.8255 C.ar    
  12 N12            2.4602    -1.7565    -2.3349 N.ar    
  13 C13            1.6408    -3.9400    -2.0170 C.ar    
  14 C14            2.7558    -4.4211    -2.7474 C.ar    
  15 N15            3.6452    -3.5360    -3.2235 N.ar    
  16 C16            3.4847    -2.2514    -3.0103 C.ar    
  17 C17            0.6979    -4.8413    -1.5086 C.ar    
  18 C18            0.8597    -6.1810    -1.7206 C.ar    
  19 C19            1.9607    -6.6644    -2.4420 C.ar    
  20 C20            2.9019    -5.7986    -2.9529 C.ar    
  21 O21           -0.0568    -7.0555    -1.2263 O.3     
  22 C22           -2.0903    -0.9764    -1.8430 C.3     
  23 N23           -2.7584    -1.5173    -0.6518 N.3     
  24 C24           -3.4690    -0.4596     0.0791 C.3     
  25 C25           -3.6693    -2.6124    -1.0108 C.3     
  26 C26           -2.8596    -3.8833    -1.2755 C.3     
  27 O27           -2.2373    -4.3129    -0.0630 O.3     
  28 O28            2.1003    -8.0011    -2.6391 O.3     
  29 O29            1.1988    -7.2814     0.5783 O.2     
  30 C30            0.2200    -7.6237    -0.0420 C.2     
  31 C31            3.2428    -8.4315    -3.3817 C.3     
  32 C32           -0.6901    -8.6885     0.5139 C.3     
  33 H33           -2.0965     1.7150    -1.6442 H       
  34 H34           -0.2544     3.1881    -0.9486 H       
  35 H35            4.0703     1.2542     0.3603 H       
  36 H36            3.7602     1.2696    -1.4053 H       
  37 H37           -0.1603    -2.6019    -0.6615 H       
  38 H38            4.2193    -1.5668    -3.4080 H       
  39 H39           -0.1532    -4.4792    -0.9510 H       
  40 H40            3.7468    -6.1792    -3.5076 H       
  41 H41           -2.8064    -0.4040    -2.4328 H       
  42 H42           -1.6983    -1.7970    -2.4439 H       
  43 H43           -4.2713    -0.0637    -0.5435 H       
  44 H44           -3.8903    -0.8717     0.9961 H       
  45 H45           -2.7727     0.3414     0.3272 H       
  46 H46           -4.3656    -2.7894    -0.1910 H       
  47 H47           -4.2259    -2.3426    -1.9083 H       
  48 H48           -3.5230    -4.6672    -1.6410 H       
  49 H49           -2.0941    -3.6771    -2.0236 H       
  50 H50           -1.6661    -5.0862    -0.1666 H       
  51 H51            3.2161    -7.9899    -4.3779 H       
  52 H52            4.1505    -8.1148    -2.8681 H       
  53 H53            3.2332    -9.5183    -3.4657 H       
  54 H54           -1.5124    -8.8622    -0.1801 H       
  55 H55           -0.1279    -9.6125     0.6495 H       
  56 H56           -1.0882    -8.3611     1.4743 H       
@<TRIPOS>BOND
   1    1    2 ar
   2    1    6 ar
   3    1   33 1
   4    2    3 ar
   5    2   22 1
   6    3    4 ar
   7    3   10 1
   8    4    5 ar
   9    4    7 1
  10    5    6 ar
  11    5    9 1
  12    6   34 1
  13    7    8 1
  14    8    9 1
  15    8   35 1
  16    8   36 1
  17   10   11 1
  18   10   37 1
  19   11   12 ar
  20   11   13 ar
  21   12   16 ar
  22   13   14 ar
  23   13   17 ar
  24   14   15 ar
  25   14   20 ar
  26   15   16 ar
  27   16   38 1
  28   17   18 ar
  29   17   39 1
  30   18   19 ar
  31   18   21 1
  32   19   20 ar
  33   19   28 1
  34   20   40 1
  35   21   30 1
  36   22   23 1
  37   22   41 1
  38   22   42 1
  39   23   24 1
  40   23   25 1
  41   24   43 1
  42   24   44 1
  43   24   45 1
  44   25   26 1
  45   25   46 1
  46   25   47 1
  47   26   27 1
  48   26   48 1
  49   26   49 1
  50   27   50 1
  51   28   31 1
  52   29   30 2
  53   30   32 1
  54   31   51 1
  55   31   52 1
  56   31   53 1
  57   32   54 1
  58   32   55 1
  59   32   56 1

#	End of record

