#	Name: ASD01410485
#	Creating user name:	WinNT
#	Creation time:	15. 06. 2019 19:17

#	Modifying user name:	WinNT
#	Modification time:	15. 06. 2019 19:17

#	Program:	/corina/corina34_cracker 3.40 0067  02.08.2006

@<TRIPOS>MOLECULE
ASD01410485
  84   87    0    0    0
SMALL
NO_CHARGES


@<TRIPOS>ATOM
   1 C1             0.5383     3.0257     0.4583 C.ar    
   2 C2             0.7857     2.4289     1.6866 C.ar    
   3 C3             1.9383     1.6877     1.8578 C.ar    
   4 N4             2.8015     1.5422     0.8709 N.ar    
   5 C5             2.6009     2.0955    -0.3140 C.ar    
   6 C6             1.4632     2.8543    -0.5572 C.ar    
   7 O7             3.5150     1.9200    -1.3010 O.3     
   8 C8             4.6613     1.2542    -0.9983 C.ar    
   9 C9             4.6154    -0.1015    -0.6956 C.ar    
  10 C10            5.7729    -0.7869    -0.3870 C.ar    
  11 C11            6.9929    -0.1252    -0.3765 C.ar    
  12 C12            7.0460     1.2435    -0.6813 C.ar    
  13 C13            5.8696     1.9269    -0.9983 C.ar    
  14 N14            8.1616    -0.8179    -0.0639 N.am    
  15 C15            8.8469    -1.4555    -1.0335 C.2     
  16 C16            8.6448    -0.8529     1.3187 C.3     
  17 O17            9.8284    -2.1102    -0.7522 O.2     
  18 C18            8.3938    -1.3550    -2.4673 C.3     
  19 C19            9.0288    -2.4828    -3.2831 C.3     
  20 C20           10.5527    -2.3622    -3.2202 C.3     
  21 C21           10.9816    -1.0116    -3.7971 C.3     
  22 C22           10.3467     0.1162    -2.9813 C.3     
  23 C23            8.8228    -0.0044    -3.0441 C.3     
  24 C24           10.0881    -0.3475     1.3675 C.3     
  25 C25           -0.1928     2.5884     2.8217 C.3     
  26 C26           12.5056    -0.8910    -3.7343 C.3     
  27 C27           -1.2219     1.4574     2.7706 C.3     
  28 C28           -2.2003     1.6170     3.9056 C.2     
  29 O29            7.2296    -2.7254     1.8942 O.3     
  30 C30            8.5894    -2.2895     1.8422 C.3     
  31 C31            7.0558    -4.0190     2.4760 C.3     
  32 N32           -3.3255     2.2899     3.8780 N.2     
  33 C33           -3.8591     2.1536     5.1050 C.2     
  34 N34           -3.0463     1.4184     5.8033 N.2     
  35 O35           -2.0900     1.0949     5.1309 O.3     
  36 C36           -5.1602     2.7452     5.5825 C.3     
  37 C37           -6.1032     1.6209     6.0157 C.3     
  38 C38           -4.8934     3.6728     6.7696 C.3     
  39 C39            8.3368     1.9551    -0.6722 C.2     
  40 O40            9.3697     1.3378    -0.5031 O.2     
  41 O41            8.3714     3.2902    -0.8516 O.3     
  42 C42            1.2389     3.4827    -1.9084 C.3     
  43 F43            0.0318     4.1898    -1.8993 F       
  44 F44            2.2907     4.3594    -2.1954 F       
  45 F45            1.1860     2.4823    -2.8849 F       
  46 H46           -0.3576     3.6068     0.2970 H       
  47 H47            2.1356     1.2215     2.8118 H       
  48 H48            3.6688    -0.6214    -0.7016 H       
  49 H49            5.7292    -1.8403    -0.1529 H       
  50 H50            5.9024     2.9804    -1.2339 H       
  51 H51            8.0154    -0.2154     1.9397 H       
  52 H52            7.3081    -1.4409    -2.5120 H       
  53 H53            8.7232    -3.4450    -2.8721 H       
  54 H54            8.7010    -2.4101    -4.3201 H       
  55 H55           10.8804    -2.4350    -2.1832 H       
  56 H56           11.0050    -3.1658    -3.8015 H       
  57 H57           10.6539    -0.9389    -4.8341 H       
  58 H58           10.6744     0.0435    -1.9443 H       
  59 H59           10.6523     1.0784    -3.3922 H       
  60 H60            8.4950     0.0684    -4.0811 H       
  61 H61            8.3704     0.7992    -2.4629 H       
  62 H62           10.1038     0.7259     1.1788 H       
  63 H63           10.5107    -0.5496     2.3517 H       
  64 H64           10.6780    -0.8588     0.6068 H       
  65 H65            0.3422     2.5503     3.7706 H       
  66 H66           -0.7022     3.5477     2.7300 H       
  67 H67           12.9579    -1.6946    -4.3155 H       
  68 H68           12.8112     0.0712    -4.1452 H       
  69 H69           12.8333    -0.9638    -2.6972 H       
  70 H70           -1.7569     1.4955     1.8217 H       
  71 H71           -0.7124     0.4982     2.8622 H       
  72 H72            9.1547    -2.9410     1.1758 H       
  73 H73            9.0221    -2.3288     2.8419 H       
  74 H74            7.5088    -4.0353     3.4673 H       
  75 H75            5.9916    -4.2400     2.5592 H       
  76 H76            7.5342    -4.7683     1.8455 H       
  77 H77           -5.6196     3.3133     4.7736 H       
  78 H78           -5.6438     1.0528     6.8246 H       
  79 H79           -7.0443     2.0488     6.3611 H       
  80 H80           -6.2932     0.9600     5.1700 H       
  81 H81           -4.4341     3.1048     7.5786 H       
  82 H82           -4.2217     4.4738     6.4610 H       
  83 H83           -5.8346     4.1008     7.1150 H       
  84 H84            9.2412     3.7126    -0.8377 H       
@<TRIPOS>BOND
   1    1    2 ar
   2    1    6 ar
   3    1   46 1
   4    2    3 ar
   5    2   25 1
   6    3    4 ar
   7    3   47 1
   8    4    5 ar
   9    5    6 ar
  10    5    7 1
  11    6   42 1
  12    7    8 1
  13    8    9 ar
  14    8   13 ar
  15    9   10 ar
  16    9   48 1
  17   10   11 ar
  18   10   49 1
  19   11   12 ar
  20   11   14 1
  21   12   13 ar
  22   12   39 1
  23   13   50 1
  24   14   15 am
  25   14   16 1
  26   15   17 2
  27   15   18 1
  28   16   24 1
  29   16   30 1
  30   16   51 1
  31   18   19 1
  32   18   23 1
  33   18   52 1
  34   19   20 1
  35   19   53 1
  36   19   54 1
  37   20   21 1
  38   20   55 1
  39   20   56 1
  40   21   22 1
  41   21   26 1
  42   21   57 1
  43   22   23 1
  44   22   58 1
  45   22   59 1
  46   23   60 1
  47   23   61 1
  48   24   62 1
  49   24   63 1
  50   24   64 1
  51   25   27 1
  52   25   65 1
  53   25   66 1
  54   26   67 1
  55   26   68 1
  56   26   69 1
  57   27   28 1
  58   27   70 1
  59   27   71 1
  60   28   32 2
  61   28   35 1
  62   29   30 1
  63   29   31 1
  64   30   72 1
  65   30   73 1
  66   31   74 1
  67   31   75 1
  68   31   76 1
  69   32   33 1
  70   33   34 2
  71   33   36 1
  72   34   35 1
  73   36   37 1
  74   36   38 1
  75   36   77 1
  76   37   78 1
  77   37   79 1
  78   37   80 1
  79   38   81 1
  80   38   82 1
  81   38   83 1
  82   39   40 2
  83   39   41 1
  84   41   84 1
  85   42   43 1
  86   42   44 1
  87   42   45 1

#	End of record

