#	Name: ASD00450023
#	Creating user name:	WinNT
#	Creation time:	15. 06. 2019 18:36

#	Modifying user name:	WinNT
#	Modification time:	15. 06. 2019 18:36

#	Program:	/corina/corina34_cracker 3.40 0067  02.08.2006

@<TRIPOS>MOLECULE
ASD00450023
  41   43    0    0    0
SMALL
NO_CHARGES


@<TRIPOS>ATOM
   1 Cl1            0.6724     4.4397     0.9512 Cl      
   2 C2            -0.7450     2.2271     0.2756 C.ar    
   3 C3            -1.2542     1.3401    -0.6700 C.ar    
   4 C4            -0.9921     1.5529    -2.0342 C.ar    
   5 N5            -0.2628     2.5949    -2.4104 N.ar    
   6 C6             0.2296     3.4467    -1.5359 C.ar    
   7 C7             0.0094     3.2974    -0.1753 C.ar    
   8 N8            -1.6084     0.5380    -2.7330 N.pl3   
   9 C9            -2.2460    -0.3051    -1.8853 C.2     
  10 C10           -2.0758     0.1190    -0.5985 C.2     
  11 C11           -2.6058    -0.5156     0.6151 C.2     
  12 O12           -2.2960    -0.0866     1.7111 O.2     
  13 C13           -3.5143    -1.6739     0.5056 C.ar    
  14 C14           -2.9934    -2.9695     0.4126 C.ar    
  15 C15           -3.8479    -4.0507     0.3103 C.ar    
  16 C16           -5.2171    -3.8581     0.2994 C.ar    
  17 C17           -5.7455    -2.5771     0.3912 C.ar    
  18 C18           -4.8993    -1.4823     0.5003 C.ar    
  19 N19           -7.1332    -2.3902     0.3791 N.am    
  20 S20           -8.1244    -3.4994     1.1067 S.o2    
  21 O21           -9.4259    -2.9433     0.9791 O.2     
  22 O22           -7.7897    -4.7312     0.4824 O.2     
  23 C23           -7.6014    -3.5032     2.8436 C.3     
  24 C24           -8.4532    -4.5013     3.6306 C.3     
  25 C25           -8.0120    -4.5045     5.0956 C.3     
  26 F26           -1.6564    -3.1630     0.4223 F       
  27 F27           -5.4117    -0.2359     0.5957 F       
  28 H28           -0.9366     2.0868     1.3292 H       
  29 H29            0.8183     4.2816    -1.8865 H       
  30 H30           -1.5889     0.4407    -3.6980 H       
  31 H31           -2.8047    -1.1803    -2.1824 H       
  32 H32           -3.4447    -5.0500     0.2381 H       
  33 H33           -5.8788    -4.7079     0.2189 H       
  34 H34           -7.5139    -1.6110    -0.0555 H       
  35 H35           -6.5522    -3.7920     2.9065 H       
  36 H36           -7.7294    -2.5056     3.2638 H       
  37 H37           -9.5023    -4.2124     3.5677 H       
  38 H38           -8.3251    -5.4988     3.2104 H       
  39 H39           -8.6188    -5.2155     5.6562 H       
  40 H40           -6.9629    -4.7933     5.1585 H       
  41 H41           -8.1401    -3.5069     5.5158 H       
@<TRIPOS>BOND
   1    1    7 1
   2    2    3 ar
   3    2    7 ar
   4    2   28 1
   5    3    4 ar
   6    3   10 1
   7    4    5 ar
   8    4    8 1
   9    5    6 ar
  10    6    7 ar
  11    6   29 1
  12    8    9 1
  13    8   30 1
  14    9   10 2
  15    9   31 1
  16   10   11 1
  17   11   12 2
  18   11   13 1
  19   13   14 ar
  20   13   18 ar
  21   14   15 ar
  22   14   26 1
  23   15   16 ar
  24   15   32 1
  25   16   17 ar
  26   16   33 1
  27   17   18 ar
  28   17   19 1
  29   18   27 1
  30   19   20 am
  31   19   34 1
  32   20   21 2
  33   20   22 2
  34   20   23 1
  35   23   24 1
  36   23   35 1
  37   23   36 1
  38   24   25 1
  39   24   37 1
  40   24   38 1
  41   25   39 1
  42   25   40 1
  43   25   41 1

#	End of record

