#	Name: ASD03090014
#	Creating user name:	WinNT
#	Creation time:	15. 06. 2019 20:28

#	Modifying user name:	WinNT
#	Modification time:	15. 06. 2019 20:28

#	Program:	/corina/corina34_cracker 3.40 0067  02.08.2006

@<TRIPOS>MOLECULE
ASD03090014
  32   34    0    0    0
SMALL
NO_CHARGES


@<TRIPOS>ATOM
   1 C1             0.0340     1.3146     0.7112 C.ar    
   2 C2            -0.0295     0.0264     0.2074 C.ar    
   3 C3             1.0989    -0.5625    -0.3380 C.ar    
   4 C4             2.2905     0.1345    -0.3810 C.ar    
   5 C5             2.3564     1.4269     0.1233 C.ar    
   6 C6             1.2235     2.0153     0.6703 C.ar    
   7 N7             3.5624     2.1346     0.0813 N.pl3   
   8 C8             3.5520     3.5077    -0.0431 C.2     
   9 N9             2.4841     4.2270    -0.2412 N.2     
  10 C10            2.6426     5.5220    -0.3366 C.2     
  11 C11            3.9417     5.9347    -0.2103 C.2     
  12 S12            4.9374     4.5044     0.0486 S.3     
  13 C13            4.4172     7.3159    -0.2741 C.2     
  14 C14            5.8343     7.6205    -0.0072 C.2     
  15 O15            3.6418     8.2153    -0.5479 O.2     
  16 C16            1.4974     6.4743    -0.5660 C.3     
  17 F17           -1.1941    -0.6572     0.2484 F       
  18 C18            6.3270     8.8855     0.0735 C.2     
  19 S19            8.0011     8.8643     0.3934 S.3     
  20 C20            8.0497     7.1102     0.4212 C.2     
  21 C21            6.8407     6.6064     0.2014 C.2     
  22 H22           -0.8483     1.7734     1.1324 H       
  23 H23            1.0473    -1.5676    -0.7298 H       
  24 H24            3.1704    -0.3252    -0.8061 H       
  25 H25            1.2724     3.0203     1.0627 H       
  26 H26            4.4060     1.6593     0.1396 H       
  27 H27            1.0934     6.7948     0.3943 H       
  28 H28            1.8530     7.3437    -1.1189 H       
  29 H29            0.7174     5.9733    -1.1393 H       
  30 H30            5.7374     9.7820    -0.0485 H       
  31 H31            8.9384     6.5222     0.5970 H       
  32 H32            6.6331     5.5469     0.1741 H       
@<TRIPOS>BOND
   1    1    2 ar
   2    1    6 ar
   3    1   22 1
   4    2    3 ar
   5    2   17 1
   6    3    4 ar
   7    3   23 1
   8    4    5 ar
   9    4   24 1
  10    5    6 ar
  11    5    7 1
  12    6   25 1
  13    7    8 1
  14    7   26 1
  15    8    9 2
  16    8   12 1
  17    9   10 1
  18   10   11 2
  19   10   16 1
  20   11   12 1
  21   11   13 1
  22   13   14 1
  23   13   15 2
  24   14   18 2
  25   14   21 1
  26   16   27 1
  27   16   28 1
  28   16   29 1
  29   18   19 1
  30   18   30 1
  31   19   20 1
  32   20   21 2
  33   20   31 1
  34   21   32 1

#	End of record

