#	Name: ASD05590001
#	Creating user name:	WinNT
#	Creation time:	15. 06. 2019 21:01

#	Modifying user name:	WinNT
#	Modification time:	15. 06. 2019 21:01

#	Program:	/corina/corina34_cracker 3.40 0067  02.08.2006

@<TRIPOS>MOLECULE
ASD05590001
  53   56    0    0    0
SMALL
NO_CHARGES


@<TRIPOS>ATOM
   1 O1            -0.9180     0.4826     1.9851 O.3     
   2 C2            -1.2515    -0.9007     2.1160 C.3     
   3 C3            -2.6956    -1.1225     1.6617 C.3     
   4 O4            -2.8047    -0.8378     0.2656 O.3     
   5 C5            -4.1207    -1.0146    -0.2625 C.3     
   6 C6            -4.1196    -0.6836    -1.7562 C.3     
   7 N7            -5.4688    -0.8649    -2.2976 N.pl3   
   8 C8            -5.8913    -1.9537    -3.0024 C.2     
   9 C9            -7.1827    -1.8007    -3.3503 C.2     
  10 C10           -7.6172    -0.5107    -2.8247 C.ar    
  11 C11           -6.5008     0.0344    -2.1664 C.ar    
  12 C12           -6.6399     1.2882    -1.5605 C.ar    
  13 N13           -7.8161     1.9037    -1.6348 N.ar    
  14 C14           -8.8403     1.3553    -2.2640 C.ar    
  15 N15           -8.7613     0.1785    -2.8452 N.ar    
  16 N16           -5.5743     1.8756    -0.8967 N.pl3   
  17 C17           -5.7657     3.0612    -0.1769 C.ar    
  18 C18           -7.0465     3.5186     0.0952 C.ar    
  19 N19           -7.2345     4.6353     0.7726 N.ar    
  20 C20           -6.2207     5.3583     1.2166 C.ar    
  21 C21           -4.9085     4.9629     0.9822 C.ar    
  22 C22           -4.6714     3.7940     0.2802 C.ar    
  23 Cl23          -3.5842     5.9197     1.5691 Cl      
  24 O24           -6.4637     6.5006     1.9092 O.3     
  25 C25           -7.7547     6.8050     2.2048 C.ar    
  26 C26           -8.4213     6.1100     3.2034 C.ar    
  27 C27           -9.7338     6.4214     3.5020 C.ar    
  28 C28          -10.3829     7.4246     2.8065 C.ar    
  29 C29           -9.7208     8.1186     1.8103 C.ar    
  30 C30           -8.4067     7.8154     1.5121 C.ar    
  31 C31          -10.4318     9.2108     1.0536 C.3     
  32 F32          -11.7396     9.3360     1.5344 F       
  33 F33           -9.7516    10.4203     1.2317 F       
  34 F34          -10.4641     8.8901    -0.3078 F       
  35 H35           -0.0148     0.6968     2.2560 H       
  36 H36           -0.5804    -1.4964     1.4972 H       
  37 H37           -1.1482    -1.2023     3.1584 H       
  38 H38           -2.9788    -2.1591     1.8444 H       
  39 H39           -3.3578    -0.4610     2.2203 H       
  40 H40           -4.4336    -2.0489    -0.1197 H       
  41 H41           -4.8126    -0.3509     0.2562 H       
  42 H42           -3.8068     0.3508    -1.8989 H       
  43 H43           -3.4278    -1.3473    -2.2749 H       
  44 H44           -5.2806    -2.8107    -3.2454 H       
  45 H45           -7.7835    -2.5002    -3.9125 H       
  46 H46           -9.7773     1.8913    -2.2990 H       
  47 H47           -4.6960     1.4653    -0.9307 H       
  48 H48           -7.8997     2.9545    -0.2515 H       
  49 H49           -3.6627     3.4622     0.0833 H       
  50 H50           -7.9149     5.3260     3.7468 H       
  51 H51          -10.2534     5.8805     4.2791 H       
  52 H52          -11.4089     7.6665     3.0414 H       
  53 H53           -7.8900     8.3579     0.7342 H       
@<TRIPOS>BOND
   1    1    2 1
   2    1   35 1
   3    2    3 1
   4    2   36 1
   5    2   37 1
   6    3    4 1
   7    3   38 1
   8    3   39 1
   9    4    5 1
  10    5    6 1
  11    5   40 1
  12    5   41 1
  13    6    7 1
  14    6   42 1
  15    6   43 1
  16    7    8 1
  17    7   11 1
  18    8    9 2
  19    8   44 1
  20    9   10 1
  21    9   45 1
  22   10   11 ar
  23   10   15 ar
  24   11   12 ar
  25   12   13 ar
  26   12   16 1
  27   13   14 ar
  28   14   15 ar
  29   14   46 1
  30   16   17 1
  31   16   47 1
  32   17   18 ar
  33   17   22 ar
  34   18   19 ar
  35   18   48 1
  36   19   20 ar
  37   20   21 ar
  38   20   24 1
  39   21   22 ar
  40   21   23 1
  41   22   49 1
  42   24   25 1
  43   25   26 ar
  44   25   30 ar
  45   26   27 ar
  46   26   50 1
  47   27   28 ar
  48   27   51 1
  49   28   29 ar
  50   28   52 1
  51   29   30 ar
  52   29   31 1
  53   30   53 1
  54   31   32 1
  55   31   33 1
  56   31   34 1

#	End of record

