#	Name: ASD09800004
#	Creating user name:	WinNT
#	Creation time:	15. 06. 2019 21:24

#	Modifying user name:	WinNT
#	Modification time:	15. 06. 2019 21:24

#	Program:	/corina/corina34_cracker 3.40 0067  02.08.2006

@<TRIPOS>MOLECULE
ASD09800004
  59   63    0    0    0
SMALL
NO_CHARGES


@<TRIPOS>ATOM
   1 C1             1.6904     1.0565     0.3629 C.ar    
   2 C2             1.6432    -0.2936     0.0767 C.ar    
   3 C3             0.8113    -0.7611    -0.9243 C.ar    
   4 C4             0.0244     0.1210    -1.6415 C.ar    
   5 C5             0.0674     1.4728    -1.3604 C.ar    
   6 C6             0.9013     1.9453    -0.3557 C.ar    
   7 N7             0.9468     3.3140    -0.0682 N.am    
   8 C8            -0.1732     4.0586    -0.1558 C.2     
   9 N9            -0.1503     5.3557     0.2094 N.am    
  10 O10           -1.2042     3.5601    -0.5644 O.2     
  11 C11           -1.2818     6.1526     0.0259 C.ar    
  12 C12           -2.5407     5.5940     0.1030 C.ar    
  13 C13           -3.6777     6.3698    -0.0761 C.ar    
  14 C14           -3.5758     7.7272    -0.3376 C.ar    
  15 C15           -2.2954     8.3285    -0.4224 C.ar    
  16 C16           -1.1404     7.5332    -0.2332 C.ar    
  17 C17           -4.7937     8.5415    -0.5272 C.2     
  18 C18           -5.8029     8.3164    -1.4572 C.2     
  19 N19           -6.7328     9.3241    -1.2696 N.pl3   
  20 C20           -6.2816    10.1002    -0.2731 C.2     
  21 N21           -5.1392     9.6355     0.1693 N.2     
  22 C22           -6.9859    11.3206     0.2613 C.3     
  23 C23           -7.2961    11.1211     1.7462 C.3     
  24 C24           -6.0856    12.5456     0.0886 C.3     
  25 C25           -6.0414     7.3545    -2.4575 C.2     
  26 N26           -7.1443     7.4424    -3.1863 N.2     
  27 C27           -8.0312     8.4172    -2.9955 C.2     
  28 N28           -7.8700     9.3394    -2.0853 N.2     
  29 N29           -5.1381     6.3341    -2.6762 N.pl3   
  30 C30           -2.1532     9.6984    -0.6848 C.ar    
  31 C31           -0.9076    10.2455    -0.7595 C.ar    
  32 C32            0.2299     9.4626    -0.5786 C.ar    
  33 C33            0.1278     8.1298    -0.3174 C.ar    
  34 C34           -0.8806    -0.3927    -2.7315 C.3     
  35 F35           -0.7510    -1.7823    -2.8289 F       
  36 F36           -2.2071    -0.0683    -2.4276 F       
  37 F37           -0.5240     0.1955    -3.9497 F       
  38 H38            2.3370     1.4205     1.1477 H       
  39 H39            2.2569    -0.9851     0.6350 H       
  40 H40            0.7764    -1.8174    -1.1465 H       
  41 H41           -0.5469     2.1614    -1.9215 H       
  42 H42            1.7844     3.7268     0.1942 H       
  43 H43            0.6523     5.7356     0.5998 H       
  44 H44           -2.6431     4.5381     0.3051 H       
  45 H45           -4.6530     5.9105    -0.0113 H       
  46 H46           -7.9156    11.4728    -0.2869 H       
  47 H47           -6.3664    10.9689     2.2944 H       
  48 H48           -7.8055    12.0038     2.1328 H       
  49 H49           -7.9375    10.2484     1.8693 H       
  50 H50           -5.8645    12.6877    -0.9693 H       
  51 H51           -6.5950    13.4283     0.4751 H       
  52 H52           -5.1558    12.3934     0.6367 H       
  53 H53           -8.9151     8.4460    -3.6154 H       
  54 H54           -4.2809     6.3397    -2.2223 H       
  55 H55           -5.3605     5.6114    -3.2837 H       
  56 H56           -3.0269    10.3170    -0.8274 H       
  57 H57           -0.8009    11.3010    -0.9621 H       
  58 H58            1.2065     9.9194    -0.6426 H       
  59 H59            1.0180     7.5342    -0.1789 H       
@<TRIPOS>BOND
   1    1    2 ar
   2    1    6 ar
   3    1   38 1
   4    2    3 ar
   5    2   39 1
   6    3    4 ar
   7    3   40 1
   8    4    5 ar
   9    4   34 1
  10    5    6 ar
  11    5   41 1
  12    6    7 1
  13    7    8 am
  14    7   42 1
  15    8    9 am
  16    8   10 2
  17    9   11 1
  18    9   43 1
  19   11   12 ar
  20   11   16 ar
  21   12   13 ar
  22   12   44 1
  23   13   14 ar
  24   13   45 1
  25   14   15 ar
  26   14   17 1
  27   15   16 ar
  28   15   30 ar
  29   16   33 ar
  30   17   18 2
  31   17   21 1
  32   18   19 1
  33   18   25 1
  34   19   20 1
  35   19   28 1
  36   20   21 2
  37   20   22 1
  38   22   23 1
  39   22   24 1
  40   22   46 1
  41   23   47 1
  42   23   48 1
  43   23   49 1
  44   24   50 1
  45   24   51 1
  46   24   52 1
  47   25   26 2
  48   25   29 1
  49   26   27 1
  50   27   28 2
  51   27   53 1
  52   29   54 1
  53   29   55 1
  54   30   31 ar
  55   30   56 1
  56   31   32 ar
  57   31   57 1
  58   32   33 ar
  59   32   58 1
  60   33   59 1
  61   34   35 1
  62   34   36 1
  63   34   37 1

#	End of record

