#	Name: ASD01708014
#	Creating user name:	WinNT
#	Creation time:	15. 06. 2019 19:22

#	Modifying user name:	WinNT
#	Modification time:	15. 06. 2019 19:22

#	Program:	/corina/corina34_cracker 3.40 0067  02.08.2006

@<TRIPOS>MOLECULE
ASD01708014
  67   70    0    0    0
SMALL
NO_CHARGES


@<TRIPOS>ATOM
   1 C1            -0.0157     1.3790     0.0293 C.ar    
   2 C2             0.0024    -0.0021     0.0141 C.ar    
   3 C3             1.1715     2.0972     0.0241 C.ar    
   4 C4             2.3829     1.4377     0.0032 C.ar    
   5 C5             2.4144     0.0388    -0.0123 C.ar    
   6 C6             1.2099    -0.6819    -0.0061 C.ar    
   7 F7             1.1409     3.4477     0.0392 F       
   8 O8             1.2278    -2.0390    -0.0206 O.3     
   9 C9             3.7006    -0.6714    -0.0346 C.2     
  10 C10            4.8567     0.0258    -0.0401 C.2     
  11 C11            6.1367    -0.6811    -0.0623 C.2     
  12 N12            7.2874     0.0120    -0.1717 N.am    
  13 O13            6.1629    -1.8953     0.0181 O.2     
  14 C14            8.5960    -0.6569    -0.0824 C.3     
  15 C15            7.2868     1.4623    -0.3907 C.3     
  16 C16            8.2971     1.8165    -1.4537 C.ar    
  17 C17            9.2235     0.9090    -1.9203 C.ar    
  18 C18            9.2921    -0.5079    -1.4341 C.3     
  19 C19            8.2711     3.1098    -1.9619 C.ar    
  20 C20            9.1695     3.5050    -2.9289 C.ar    
  21 C21           10.1178     2.5938    -3.4021 C.ar    
  22 C22           10.1372     1.2969    -2.8913 C.ar    
  23 Cl23          11.3120     0.1589    -3.4729 Cl      
  24 Cl24           9.1236     5.1233    -3.5556 Cl      
  25 C25           11.0916     3.0017    -4.4349 C.2     
  26 N26           10.7934     2.8482    -5.7403 N.am    
  27 O27           12.1621     3.4759    -4.1076 O.2     
  28 C28           11.7593     3.2528    -6.7648 C.3     
  29 C29           11.6020     4.7241    -7.0504 C.2     
  30 O30           12.3877     5.3186    -7.9620 O.3     
  31 O31           10.7685     5.3686    -6.4589 O.2     
  32 C32           11.5082     2.4549    -8.0459 C.3     
  33 C33           11.7850     0.9956    -7.7912 C.ar    
  34 C34           10.7703     0.1661    -7.3509 C.ar    
  35 C35           13.0519     0.4852    -8.0031 C.ar    
  36 C36           13.3058    -0.8535    -7.7694 C.ar    
  37 C37           12.2929    -1.6815    -7.3234 C.ar    
  38 C38           11.0242    -1.1722    -7.1172 C.ar    
  39 S39            9.7329    -2.2277    -6.5487 S.o2    
  40 O40            8.5432    -1.6143    -7.0258 O.2     
  41 O41           10.1179    -3.5220    -6.9910 O.2     
  42 C42            9.8234    -2.1200    -4.7402 C.3     
  43 H43           -0.9600     1.9031     0.0407 H       
  44 H44           -0.9263    -0.5533     0.0182 H       
  45 H45            3.3051     1.9999    -0.0014 H       
  46 H46            1.2431    -2.4416     0.8585 H       
  47 H47            3.7211    -1.7512    -0.0466 H       
  48 H48            4.8362     1.1055    -0.0281 H       
  49 H49            9.1977    -0.1878     0.6961 H       
  50 H50            8.4554    -1.7135     0.1456 H       
  51 H51            6.2951     1.7800    -0.7126 H       
  52 H52            7.5453     1.9695     0.5388 H       
  53 H53           10.3368    -0.7999    -1.3271 H       
  54 H54            8.8112    -1.1605    -2.1628 H       
  55 H55            7.5380     3.8129    -1.5949 H       
  56 H56            9.9393     2.4699    -6.0015 H       
  57 H57           12.7706     3.0581    -6.4078 H       
  58 H58           12.2496     6.2641    -8.1108 H       
  59 H59           10.4701     2.5795    -8.3540 H       
  60 H60           12.1673     2.8174    -8.8348 H       
  61 H61            9.7794     0.5641    -7.1892 H       
  62 H62           13.8434     1.1322    -8.3516 H       
  63 H63           14.2956    -1.2525    -7.9357 H       
  64 H64           12.4912    -2.7274    -7.1412 H       
  65 H65            9.6706    -1.0864    -4.4297 H       
  66 H66            9.0506    -2.7498    -4.2995 H       
  67 H67           10.8035    -2.4590    -4.4046 H       
@<TRIPOS>BOND
   1    1    2 ar
   2    1    3 ar
   3    1   43 1
   4    2    6 ar
   5    2   44 1
   6    3    4 ar
   7    3    7 1
   8    4    5 ar
   9    4   45 1
  10    5    6 ar
  11    5    9 1
  12    6    8 1
  13    8   46 1
  14    9   10 2
  15    9   47 1
  16   10   11 1
  17   10   48 1
  18   11   12 am
  19   11   13 2
  20   12   14 1
  21   12   15 1
  22   14   18 1
  23   14   49 1
  24   14   50 1
  25   15   16 1
  26   15   51 1
  27   15   52 1
  28   16   17 ar
  29   16   19 ar
  30   17   18 1
  31   17   22 ar
  32   18   53 1
  33   18   54 1
  34   19   20 ar
  35   19   55 1
  36   20   21 ar
  37   20   24 1
  38   21   22 ar
  39   21   25 1
  40   22   23 1
  41   25   26 am
  42   25   27 2
  43   26   28 1
  44   26   56 1
  45   28   29 1
  46   28   32 1
  47   28   57 1
  48   29   30 1
  49   29   31 2
  50   30   58 1
  51   32   33 1
  52   32   59 1
  53   32   60 1
  54   33   34 ar
  55   33   35 ar
  56   34   38 ar
  57   34   61 1
  58   35   36 ar
  59   35   62 1
  60   36   37 ar
  61   36   63 1
  62   37   38 ar
  63   37   64 1
  64   38   39 1
  65   39   40 2
  66   39   41 2
  67   39   42 1
  68   42   65 1
  69   42   66 1
  70   42   67 1

#	End of record

