#	Name: ASD02408094
#	Creating user name:	WinNT
#	Creation time:	15. 06. 2019 20:21

#	Modifying user name:	WinNT
#	Modification time:	15. 06. 2019 20:21

#	Program:	/corina/corina34_cracker 3.40 0067  02.08.2006

@<TRIPOS>MOLECULE
ASD02408094
  49   52    0    0    0
SMALL
NO_CHARGES


@<TRIPOS>ATOM
   1 C1            -0.4194     2.2392     0.0175 C.ar    
   2 C2            -0.6744     0.8986    -0.2014 C.ar    
   3 C3             0.9992     2.7478     0.0078 C.3     
   4 C4             1.5287     2.7862     1.4182 C.2     
   5 N5             2.7885     3.2143     1.6293 N.am    
   6 N6             0.7497     2.4087     2.3951 N.2     
   7 C7             1.1662     2.4222     3.6678 C.2     
   8 C8             2.4712     2.8524     3.9592 C.2     
   9 C9             3.2949     3.2621     2.8793 C.2     
  10 N10            0.3263     2.0202     4.6772 N.pl3   
  11 C11            0.2937     2.7425     5.9563 C.3     
  12 O12            4.4355     3.6445     3.0756 O.2     
  13 C13           -1.9758     0.4320    -0.1924 C.ar    
  14 C14           -3.0218     1.3061     0.0360 C.ar    
  15 C15           -2.7666     2.6470     0.2559 C.ar    
  16 C16           -1.4661     3.1147     0.2398 C.ar    
  17 C17           -1.1879     4.5763     0.4795 C.3     
  18 C18           -1.1528     3.1477     6.2572 C.3     
  19 C19           -2.0469     1.9073     6.2084 C.3     
  20 C20           -1.9959     1.2827     4.8127 C.3     
  21 C21           -0.5613     0.8633     4.4966 C.3     
  22 O22           -1.6005     0.9529     7.1797 O.3     
  23 C23           -2.6964     0.7221     8.0882 C.3     
  24 C24           -3.9325     1.1656     7.2664 C.3     
  25 O25           -3.4002     2.2823     6.5138 O.3     
  26 C26            2.9541     2.8815     5.3070 C.1     
  27 N27            3.3372     2.9046     6.3762 N.1     
  28 H28            0.1429     0.2155    -0.3798 H       
  29 H29            1.6190     2.0840    -0.5951 H       
  30 H30            1.0224     3.7515    -0.4165 H       
  31 H31            3.3357     3.4899     0.8772 H       
  32 H32            0.6646     2.0952     6.7510 H       
  33 H33            0.9164     3.6345     5.8882 H       
  34 H34           -2.1751    -0.6155    -0.3642 H       
  35 H35           -4.0385     0.9418     0.0423 H       
  36 H36           -3.5840     3.3301     0.4339 H       
  37 H37           -1.0437     4.7486     1.5461 H       
  38 H38           -0.2874     4.8681    -0.0608 H       
  39 H39           -2.0316     5.1694     0.1265 H       
  40 H40           -1.2061     3.5958     7.2494 H       
  41 H41           -1.4907     3.8691     5.5132 H       
  42 H42           -2.6469     0.4090     4.7811 H       
  43 H43           -2.3298     2.0125     4.0752 H       
  44 H44           -0.5017     0.5129     3.4662 H       
  45 H45           -0.2560     0.0660     5.1741 H       
  46 H46           -2.7654    -0.3342     8.3481 H       
  47 H47           -2.5896     1.3340     8.9839 H       
  48 H48           -4.2646     0.3691     6.6005 H       
  49 H49           -4.7419     1.4871     7.9218 H       
@<TRIPOS>BOND
   1    1    2 ar
   2    1    3 1
   3    1   16 ar
   4    2   13 ar
   5    2   28 1
   6    3    4 1
   7    3   29 1
   8    3   30 1
   9    4    5 1
  10    4    6 2
  11    5    9 am
  12    5   31 1
  13    6    7 1
  14    7    8 2
  15    7   10 1
  16    8    9 1
  17    8   26 1
  18    9   12 2
  19   10   11 1
  20   10   21 1
  21   11   18 1
  22   11   32 1
  23   11   33 1
  24   13   14 ar
  25   13   34 1
  26   14   15 ar
  27   14   35 1
  28   15   16 ar
  29   15   36 1
  30   16   17 1
  31   17   37 1
  32   17   38 1
  33   17   39 1
  34   18   19 1
  35   18   40 1
  36   18   41 1
  37   19   20 1
  38   19   22 1
  39   19   25 1
  40   20   21 1
  41   20   42 1
  42   20   43 1
  43   21   44 1
  44   21   45 1
  45   22   23 1
  46   23   24 1
  47   23   46 1
  48   23   47 1
  49   24   25 1
  50   24   48 1
  51   24   49 1
  52   26   27 3

#	End of record

