#	Name: ASD00840280
#	Creating user name:	WinNT
#	Creation time:	15. 06. 2019 18:38

#	Modifying user name:	WinNT
#	Modification time:	15. 06. 2019 18:38

#	Program:	/corina/corina34_cracker 3.40 0067  02.08.2006

@<TRIPOS>MOLECULE
ASD00840280
  90   95    0    0    0
SMALL
NO_CHARGES


@<TRIPOS>ATOM
   1 F1            -0.1205    -3.1614     4.7116 F       
   2 N2            -0.0149     1.3151     0.0239 N.ar    
   3 C3             0.0023    -0.0072     0.0102 C.ar    
   4 C4             1.2068    -0.6992    -0.0072 C.ar    
   5 C5             2.3928     0.0137    -0.0101 C.ar    
   6 C6             2.3318     1.4006     0.0047 C.ar    
   7 C7             1.0993     2.0222     0.0216 C.ar    
   8 C8             1.2215    -2.2060    -0.0224 C.3     
   9 C9             0.4763    -2.7316    -1.2307 C.2     
  10 N10            2.5991    -2.7046    -0.0121 N.am    
  11 C11            3.4466    -2.3635    -1.0029 C.2     
  12 N12            4.7401    -2.7371    -0.9417 N.am    
  13 O13            3.0443    -1.7187    -1.9520 O.2     
  14 C14            5.6552    -2.4758    -2.0632 C.3     
  15 C15            6.9058    -1.7777    -1.5184 C.3     
  16 N16            7.4742    -2.5798    -0.4269 N.3     
  17 C17            6.5397    -2.6818     0.7020 C.3     
  18 C18            5.2755    -3.4114     0.2507 C.3     
  19 C19            8.7676    -2.0358     0.0079 C.3     
  20 C20            9.2692    -2.8188     1.2244 C.3     
  21 C21           10.6444    -2.2877     1.6352 C.3     
  22 N22           11.5822    -2.4354     0.5148 N.3     
  23 C23           11.1459    -1.6540    -0.6494 C.3     
  24 C24            9.7856    -2.1662    -1.1284 C.3     
  25 H25           12.5186    -2.1804     0.7911 H       
  26 O26            0.7576    -2.5318    -2.3935 O.2     
  27 N27           -0.5547    -3.4617    -0.7732 N.am    
  28 C28            0.4480    -2.7549     1.1544 C.ar    
  29 C29           -0.6000    -3.4956     0.6221 C.ar    
  30 C30            0.6114    -2.6411     2.5165 C.ar    
  31 C31           -0.2768    -3.2707     3.3742 C.ar    
  32 C32           -1.3259    -4.0122     2.8550 C.ar    
  33 C33           -1.4898    -4.1263     1.4887 C.ar    
  34 Cl34          -2.4396    -4.8016     3.9275 Cl      
  35 C35           -1.0192    -5.8488    -2.0618 C.ar    
  36 C36            0.1591    -6.0097    -2.7764 C.ar    
  37 C37           -1.6981    -6.9554    -1.5883 C.ar    
  38 C38           -1.2055    -8.2243    -1.8247 C.ar    
  39 C39           -0.0272    -8.3905    -2.5391 C.ar    
  40 C40            0.6554    -7.2821    -3.0154 C.ar    
  41 O41            0.4567    -9.6389    -2.7717 O.3     
  42 O42            0.8261    -4.9210    -3.2422 O.3     
  43 C43           -0.2988   -10.7348    -2.2518 C.3     
  44 C44            2.0322    -5.1614    -3.9698 C.3     
  45 C45            2.6368    -3.8267    -4.4101 C.3     
  46 O46           -1.1675    -0.6945     0.0136 O.3     
  47 C47           -3.5780    -0.8666     0.0334 C.3     
  48 C48           -2.3717     0.0746     0.0322 C.3     
  49 S49           -1.6467    -4.2318    -1.7514 S.o2    
  50 O50           -2.8276    -4.4010    -0.9793 O.2     
  51 O51           -1.6235    -3.5466    -2.9961 O.2     
  52 H52            3.3442    -0.4972    -0.0231 H       
  53 H53            3.2388     1.9868     0.0033 H       
  54 H54            1.0463     3.1008     0.0328 H       
  55 H55            2.9011    -3.2803     0.7078 H       
  56 H56            5.9371    -3.4181    -2.5329 H       
  57 H57            5.1650    -1.8317    -2.7933 H       
  58 H58            7.6418    -1.6754    -2.3159 H       
  59 H59            6.6368    -0.7906    -1.1424 H       
  60 H60            7.0101    -3.2351     1.5147 H       
  61 H61            6.2757    -1.6821     1.0470 H       
  62 H62            4.5346    -3.3887     1.0498 H       
  63 H63            5.5181    -4.4445     0.0018 H       
  64 H64            8.6500    -0.9853     0.2741 H       
  65 H65            8.5695    -2.6948     2.0509 H       
  66 H66            9.3485    -3.8756     0.9695 H       
  67 H67           10.5618    -1.2344     1.9032 H       
  68 H68           11.0108    -2.8527     2.4923 H       
  69 H69           11.0608    -0.6037    -0.3707 H       
  70 H70           11.8764    -1.7587    -1.4516 H       
  71 H71            9.8730    -3.2127    -1.4203 H       
  72 H72            9.4548    -1.5758    -1.9829 H       
  73 H73            1.4309    -2.0624     2.9163 H       
  74 H74           -2.3097    -4.7059     1.0910 H       
  75 H75           -2.6152    -6.8281    -1.0321 H       
  76 H76           -1.7375    -9.0876    -1.4530 H       
  77 H77            1.5722    -7.4094    -3.5719 H       
  78 H78           -0.3696   -10.6455    -1.1678 H       
  79 H79           -1.2996   -10.7235    -2.6835 H       
  80 H80            0.1967   -11.6714    -2.5076 H       
  81 H81            2.7419    -5.6892    -3.3327 H       
  82 H82            1.8119    -5.7679    -4.8483 H       
  83 H83            3.5569    -4.0101    -4.9651 H       
  84 H84            1.9272    -3.2989    -5.0472 H       
  85 H85            2.8572    -3.2202    -3.5316 H       
  86 H86           -3.5563    -1.4860    -0.8632 H       
  87 H87           -3.5404    -1.5043     0.9166 H       
  88 H88           -4.4965    -0.2800     0.0476 H       
  89 H89           -2.3933     0.6941     0.9289 H       
  90 H90           -2.4093     0.7123    -0.8509 H       
@<TRIPOS>BOND
   1    1   31 1
   2    2    3 ar
   3    2    7 ar
   4    3    4 ar
   5    3   46 1
   6    4    5 ar
   7    4    8 1
   8    5    6 ar
   9    5   52 1
  10    6    7 ar
  11    6   53 1
  12    7   54 1
  13    8    9 1
  14    8   10 1
  15    8   28 1
  16    9   26 2
  17    9   27 am
  18   10   11 am
  19   10   55 1
  20   11   12 am
  21   11   13 2
  22   12   14 1
  23   12   18 1
  24   14   15 1
  25   14   56 1
  26   14   57 1
  27   15   16 1
  28   15   58 1
  29   15   59 1
  30   16   17 1
  31   16   19 1
  32   17   18 1
  33   17   60 1
  34   17   61 1
  35   18   62 1
  36   18   63 1
  37   19   20 1
  38   19   24 1
  39   19   64 1
  40   20   21 1
  41   20   65 1
  42   20   66 1
  43   21   22 1
  44   21   67 1
  45   21   68 1
  46   22   23 1
  47   22   25 1
  48   23   24 1
  49   23   69 1
  50   23   70 1
  51   24   71 1
  52   24   72 1
  53   27   49 am
  54   27   29 1
  55   28   29 ar
  56   28   30 ar
  57   29   33 ar
  58   30   31 ar
  59   30   73 1
  60   31   32 ar
  61   32   33 ar
  62   32   34 1
  63   33   74 1
  64   35   36 ar
  65   35   37 ar
  66   35   49 1
  67   36   42 1
  68   36   40 ar
  69   37   38 ar
  70   37   75 1
  71   38   39 ar
  72   38   76 1
  73   39   40 ar
  74   39   41 1
  75   40   77 1
  76   41   43 1
  77   42   44 1
  78   43   78 1
  79   43   79 1
  80   43   80 1
  81   44   45 1
  82   44   81 1
  83   44   82 1
  84   45   83 1
  85   45   84 1
  86   45   85 1
  87   46   48 1
  88   47   48 1
  89   47   86 1
  90   47   87 1
  91   47   88 1
  92   48   89 1
  93   48   90 1
  94   49   50 2
  95   49   51 2

#	End of record

