#	Name: ASD01912276
#	Creating user name:	WinNT
#	Creation time:	15. 06. 2019 19:59

#	Modifying user name:	WinNT
#	Modification time:	15. 06. 2019 19:59

#	Program:	/corina/corina34_cracker 3.40 0067  02.08.2006

@<TRIPOS>MOLECULE
ASD01912276
  49   51    0    0    0
SMALL
NO_CHARGES


@<TRIPOS>ATOM
   1 N1             0.0642     1.5233    -0.0880 N.am    
   2 C2             0.2455     0.1117     0.2741 C.3     
   3 C3             0.6908    -0.6644    -0.9719 C.3     
   4 C4             1.8426     0.0789    -1.6119 C.2     
   5 C5             1.6618     1.5461    -1.9338 C.3     
   6 C6             1.1922     2.2668    -0.6637 C.3     
   7 C7            -1.1255     2.1280     0.1007 C.2     
   8 O8            -2.1308     1.4598     0.2459 O.2     
   9 N9            -1.2007     3.4734     0.1284 N.am    
  10 C10           -2.4418     4.1076     0.0026 C.ar    
  11 C11           -2.5433     5.4805     0.1845 C.ar    
  12 C12           -3.7696     6.1035     0.0592 C.ar    
  13 C13           -4.8956     5.3615    -0.2469 C.ar    
  14 C14           -4.7979     3.9942    -0.4285 C.ar    
  15 C15           -3.5736     3.3660    -0.3099 C.ar    
  16 C16            2.9886    -0.5433    -1.8851 C.2     
  17 C17            4.0677     0.1770    -2.4911 C.1     
  18 C18            4.9524     0.7675    -2.9880 C.1     
  19 C19            6.0315     1.4878    -3.5940 C.ar    
  20 C20            7.2318     0.8301    -3.8785 C.ar    
  21 C21            8.2638     1.5403    -4.4638 C.ar    
  22 C22            8.0666     2.8854    -4.7474 C.ar    
  23 C23            6.8538     3.4744    -4.4397 C.ar    
  24 N24            5.8829     2.7765    -3.8872 N.ar    
  25 C25            6.6377     4.9339    -4.7465 C.3     
  26 C26            0.0169     4.2719     0.2901 C.3     
  27 H27            1.0081     0.0282     1.0485 H       
  28 H28           -0.6967    -0.2954     0.6409 H       
  29 H29            1.0139    -1.6650    -0.6849 H       
  30 H30           -0.1380    -0.7338    -1.6765 H       
  31 H31            2.6101     1.9685    -2.2661 H       
  32 H32            0.9137     1.6602    -2.7183 H       
  33 H33            0.8732     3.2785    -0.9143 H       
  34 H34            2.0091     2.3070     0.0568 H       
  35 H35           -1.6643     6.0605     0.4239 H       
  36 H36           -3.8492     7.1712     0.2009 H       
  37 H37           -5.8534     5.8509    -0.3439 H       
  38 H38           -5.6792     3.4174    -0.6675 H       
  39 H39           -3.4971     2.2987    -0.4563 H       
  40 H40            3.1037    -1.5910    -1.6495 H       
  41 H41            7.3514    -0.2174    -3.6443 H       
  42 H42            9.2028     1.0595    -4.6950 H       
  43 H43            8.8539     3.4668    -5.2040 H       
  44 H44            6.2287     5.0372    -5.7516 H       
  45 H45            5.9393     5.3574    -4.0248 H       
  46 H46            7.5889     5.4627    -4.6853 H       
  47 H47            0.3773     4.5873    -0.6891 H       
  48 H48           -0.2028     5.1506     0.8966 H       
  49 H49            0.7820     3.6722     0.7830 H       
@<TRIPOS>BOND
   1    1    2 1
   2    1    6 1
   3    1    7 am
   4    2    3 1
   5    2   27 1
   6    2   28 1
   7    3    4 1
   8    3   29 1
   9    3   30 1
  10    4    5 1
  11    4   16 2
  12    5    6 1
  13    5   31 1
  14    5   32 1
  15    6   33 1
  16    6   34 1
  17    7    8 2
  18    7    9 am
  19    9   10 1
  20    9   26 1
  21   10   11 ar
  22   10   15 ar
  23   11   12 ar
  24   11   35 1
  25   12   13 ar
  26   12   36 1
  27   13   14 ar
  28   13   37 1
  29   14   15 ar
  30   14   38 1
  31   15   39 1
  32   16   17 1
  33   16   40 1
  34   17   18 3
  35   18   19 1
  36   19   20 ar
  37   19   24 ar
  38   20   21 ar
  39   20   41 1
  40   21   22 ar
  41   21   42 1
  42   22   23 ar
  43   22   43 1
  44   23   24 ar
  45   23   25 1
  46   25   44 1
  47   25   45 1
  48   25   46 1
  49   26   47 1
  50   26   48 1
  51   26   49 1

#	End of record

