#	Name: ASD01883254
#	Creating user name:	WinNT
#	Creation time:	15. 06. 2019 19:46

#	Modifying user name:	WinNT
#	Modification time:	15. 06. 2019 19:46

#	Program:	/corina/corina34_cracker 3.40 0067  02.08.2006

@<TRIPOS>MOLECULE
ASD01883254
  49   51    0    0    0
SMALL
NO_CHARGES


@<TRIPOS>ATOM
   1 N1             0.1549     0.9955     0.4461 N.am    
   2 C2             0.1136    -0.3353     0.2491 C.2     
   3 C3            -1.1349    -1.0007     0.1779 C.2     
   4 C4            -2.3122    -0.2436     0.3167 C.2     
   5 C5            -2.2023     1.1464     0.5209 C.2     
   6 C6            -0.9821     1.7251     0.5851 C.2     
   7 O7             1.1496    -0.9673     0.1317 O.2     
   8 C8            -1.1973    -2.4159    -0.0316 C.1     
   9 N9            -1.2467    -3.5386    -0.1978 N.1     
  10 C10            1.4534     1.6700     0.5180 C.3     
  11 C11            1.8742     2.1170    -0.8834 C.3     
  12 C12            3.2303     2.8215    -0.8083 C.3     
  13 C13            4.3002     1.8222    -0.3638 C.3     
  14 C14            3.5931     3.3776    -2.1867 C.3     
  15 C15           -3.6373    -0.8925     0.2492 C.ar    
  16 C16           -4.4671    -0.9086     1.3736 C.ar    
  17 C17           -5.7016    -1.5142     1.3076 C.ar    
  18 C18           -6.1236    -2.1100     0.1226 C.ar    
  19 C19           -5.2993    -2.0959    -0.9988 C.ar    
  20 C20           -4.0663    -1.4865    -0.9409 C.ar    
  21 N21           -7.3732    -2.7220     0.0589 N.pl3   
  22 C22           -8.4201    -2.2509     0.8470 C.ar    
  23 C23           -8.4904    -0.9072     1.2148 C.ar    
  24 C24           -9.5438    -0.4807     1.9958 C.ar    
  25 N25          -10.4766    -1.3254     2.3939 N.ar    
  26 C26          -10.4456    -2.6039     2.0671 C.ar    
  27 C27           -9.4289    -3.1091     1.2843 C.ar    
  28 H28           -3.0922     1.7484     0.6303 H       
  29 H29           -0.9102     2.7912     0.7423 H       
  30 H30            1.3748     2.5409     1.1688 H       
  31 H31            2.1982     0.9827     0.9191 H       
  32 H32            1.9527     1.2461    -1.5342 H       
  33 H33            1.1294     2.8043    -1.2846 H       
  34 H34            3.1757     3.6390    -0.0895 H       
  35 H35            4.0417     1.4259     0.6182 H       
  36 H36            4.3548     1.0046    -1.0826 H       
  37 H37            5.2663     2.3241    -0.3103 H       
  38 H38            2.8309     4.0896    -2.5034 H       
  39 H39            4.5592     3.8795    -2.1332 H       
  40 H40            3.6477     2.5601    -2.9055 H       
  41 H41           -4.1401    -0.4468     2.2935 H       
  42 H42           -6.3432    -1.5274     2.1762 H       
  43 H43           -5.6292    -2.5597    -1.9167 H       
  44 H44           -3.4271    -1.4759    -1.8113 H       
  45 H45           -7.5142    -3.4763    -0.5344 H       
  46 H46           -7.7303    -0.2108     0.8927 H       
  47 H47           -9.6063     0.5578     2.2857 H       
  48 H48          -11.2286    -3.2619     2.4140 H       
  49 H49           -9.4097    -4.1561     1.0203 H       
@<TRIPOS>BOND
   1    1    2 am
   2    1   10 1
   3    1    6 1
   4    2    3 1
   5    2    7 2
   6    3    4 2
   7    3    8 1
   8    4    5 1
   9    4   15 1
  10    5    6 2
  11    5   28 1
  12    6   29 1
  13    8    9 3
  14   10   11 1
  15   10   30 1
  16   10   31 1
  17   11   12 1
  18   11   32 1
  19   11   33 1
  20   12   13 1
  21   12   14 1
  22   12   34 1
  23   13   35 1
  24   13   36 1
  25   13   37 1
  26   14   38 1
  27   14   39 1
  28   14   40 1
  29   15   16 ar
  30   15   20 ar
  31   16   17 ar
  32   16   41 1
  33   17   18 ar
  34   17   42 1
  35   18   19 ar
  36   18   21 1
  37   19   20 ar
  38   19   43 1
  39   20   44 1
  40   21   22 1
  41   21   45 1
  42   22   23 ar
  43   22   27 ar
  44   23   24 ar
  45   23   46 1
  46   24   25 ar
  47   24   47 1
  48   25   26 ar
  49   26   27 ar
  50   26   48 1
  51   27   49 1

#	End of record

