#	Name: ASD07300009
#	Creating user name:	WinNT
#	Creation time:	15. 06. 2019 21:09

#	Modifying user name:	WinNT
#	Modification time:	15. 06. 2019 21:09

#	Program:	/corina/corina34_cracker 3.40 0067  02.08.2006

@<TRIPOS>MOLECULE
ASD07300009
  62   66    0    0    0
SMALL
NO_CHARGES


@<TRIPOS>ATOM
   1 C1            -0.0582     1.3999     0.0469 C.2     
   2 C2            -0.0711    -0.0566    -0.1643 C.2     
   3 C3             1.1772    -0.7237    -0.1456 C.2     
   4 C4             2.2910     0.0222     0.0645 C.2     
   5 N5             2.2053     1.3588     0.2493 N.pl3   
   6 N6             1.0961     2.0012     0.2398 N.2     
   7 O7            -1.1154    -0.6643    -0.3476 O.2     
   8 N8            -2.2413     2.2053    -0.9695 N.pl3   
   9 N9            -3.2761     3.0604    -0.5703 N.2     
  10 C10           -2.9996     3.5286     0.6206 C.2     
  11 C11           -1.7794     2.9975     1.0384 C.2     
  12 C12           -1.3167     2.1729     0.0363 C.2     
  13 C13           -2.1698     1.5043    -2.1800 C.ar    
  14 C14           -3.3016     0.8843    -2.6929 C.ar    
  15 C15           -3.2278     0.1938    -3.8868 C.ar    
  16 C16           -2.0285     0.1194    -4.5712 C.ar    
  17 C17           -0.8997     0.7357    -4.0630 C.ar    
  18 C18           -0.9683     1.4326    -2.8726 C.ar    
  19 C19            3.3871     2.0770     0.4616 C.ar    
  20 C20            3.5230     2.8808     1.5922 C.ar    
  21 C21            4.6965     3.5894     1.7970 C.ar    
  22 C22            5.7279     3.4981     0.8817 C.ar    
  23 C23            5.5937     2.7009    -0.2408 C.ar    
  24 C24            4.4301     1.9867    -0.4502 C.ar    
  25 C25            7.0026     4.2697     1.1071 C.3     
  26 C26            8.1786     3.2955     1.2016 C.3     
  27 C27            7.2298     5.2316    -0.0609 C.3     
  28 C28            8.5240     6.0149     0.1678 C.3     
  29 C29            9.6999     5.0407     0.2623 C.3     
  30 C30            9.4727     4.0789     1.4303 C.3     
  31 C31            9.8088     4.2449    -1.0399 C.3     
  32 O32           10.9086     5.7724     0.4760 O.3     
  33 O33            2.5075     2.9699     2.4910 O.3     
  34 C34            2.7176     3.8127     3.6257 C.3     
  35 H35            1.2410    -1.7917    -0.2934 H       
  36 H36            3.2582    -0.4580     0.0846 H       
  37 H37           -3.6144     4.2133     1.1859 H       
  38 H38           -1.2861     3.1967     1.9783 H       
  39 H39           -4.2384     0.9418    -2.1587 H       
  40 H40           -4.1076    -0.2889    -4.2860 H       
  41 H41           -1.9732    -0.4215    -5.5043 H       
  42 H42            0.0356     0.6755    -4.5997 H       
  43 H43           -0.0874     1.9175    -2.4785 H       
  44 H44            4.8046     4.2134     2.6718 H       
  45 H45            6.4026     2.6333    -0.9531 H       
  46 H46            4.3301     1.3614    -1.3251 H       
  47 H47            6.9250     4.8366     2.0348 H       
  48 H48            8.0167     2.6103     2.0336 H       
  49 H49            8.2562     2.7286     0.2738 H       
  50 H50            7.3074     4.6646    -0.9886 H       
  51 H51            6.3920     5.9256    -0.1282 H       
  52 H52            8.6858     6.7002    -0.6642 H       
  53 H53            8.4463     6.5819     1.0956 H       
  54 H54            9.3951     4.6458     2.3580 H       
  55 H55           10.3105     3.3848     1.4976 H       
  56 H56            9.9707     4.9302    -1.8720 H       
  57 H57           10.6466     3.5509    -0.9726 H       
  58 H58            8.8868     3.6868    -1.2028 H       
  59 H59           11.6973     5.2172     0.5460 H       
  60 H60            3.5780     3.4539     4.1905 H       
  61 H61            2.9027     4.8334     3.2909 H       
  62 H62            1.8322     3.7937     4.2613 H       
@<TRIPOS>BOND
   1    1    2 1
   2    1    6 2
   3    1   12 1
   4    2    3 1
   5    2    7 2
   6    3    4 2
   7    3   35 1
   8    4    5 1
   9    4   36 1
  10    5    6 1
  11    5   19 1
  12    8    9 1
  13    8   12 1
  14    8   13 1
  15    9   10 2
  16   10   11 1
  17   10   37 1
  18   11   12 2
  19   11   38 1
  20   13   14 ar
  21   13   18 ar
  22   14   15 ar
  23   14   39 1
  24   15   16 ar
  25   15   40 1
  26   16   17 ar
  27   16   41 1
  28   17   18 ar
  29   17   42 1
  30   18   43 1
  31   19   20 ar
  32   19   24 ar
  33   20   21 ar
  34   20   33 1
  35   21   22 ar
  36   21   44 1
  37   22   23 ar
  38   22   25 1
  39   23   24 ar
  40   23   45 1
  41   24   46 1
  42   25   26 1
  43   25   27 1
  44   25   47 1
  45   26   30 1
  46   26   48 1
  47   26   49 1
  48   27   28 1
  49   27   50 1
  50   27   51 1
  51   28   29 1
  52   28   52 1
  53   28   53 1
  54   29   30 1
  55   29   31 1
  56   29   32 1
  57   30   54 1
  58   30   55 1
  59   31   56 1
  60   31   57 1
  61   31   58 1
  62   32   59 1
  63   33   34 1
  64   34   60 1
  65   34   61 1
  66   34   62 1

#	End of record

