#	Name: ASD01841014
#	Creating user name:	WinNT
#	Creation time:	15. 06. 2019 19:38

#	Modifying user name:	WinNT
#	Modification time:	15. 06. 2019 19:38

#	Program:	/corina/corina34_cracker 3.40 0067  02.08.2006

@<TRIPOS>MOLECULE
ASD01841014
 100  105    0    0    0
SMALL
NO_CHARGES


@<TRIPOS>ATOM
   1 N1            -0.0178     1.4648     0.0101 N.4     
   2 C2             0.0021    -0.0041     0.0020 C.3     
   3 C3            -1.4266    -0.5342     0.1385 C.3     
   4 C4            -1.4059    -2.0641     0.1301 C.3     
   5 C5            -2.8346    -2.5943     0.2667 C.3     
   6 C6            -2.8040    -4.0965     0.3818 C.ar    
   7 C7            -3.4719    -2.0087     1.5003 C.ar    
   8 O8            -3.5935    -2.2201    -0.8849 O.3     
   9 C9            -3.8639    -4.8477    -0.0907 C.ar    
  10 C10           -3.8360    -6.2257     0.0150 C.ar    
  11 C11           -2.7478    -6.8526     0.5928 C.ar    
  12 C12           -1.6875    -6.1015     1.0645 C.ar    
  13 C13           -1.7136    -4.7238     0.9549 C.ar    
  14 C14           -4.8382    -1.8023     1.5408 C.ar    
  15 C15           -5.4228    -1.2652     2.6724 C.ar    
  16 C16           -4.6412    -0.9349     3.7638 C.ar    
  17 C17           -3.2751    -1.1422     3.7236 C.ar    
  18 C18           -2.6910    -1.6833     2.5936 C.ar    
  19 C19            1.3597     1.9714    -0.0003 C.3     
  20 C20            1.3462     3.4988     0.0898 C.3     
  21 C21            0.5820     4.0687    -1.1087 C.3     
  22 C22           -0.8299     3.4760    -1.1300 C.3     
  23 C23           -0.7357     1.9494    -1.1749 C.3     
  24 C24            0.4960     5.5912    -0.9837 C.3     
  25 C25            1.9080     6.1830    -0.9525 C.3     
  26 C26            1.8144     7.7097    -0.9076 C.3     
  27 N27            1.1050     8.1952    -2.0974 N.4     
  28 C28           -0.2729     7.6894    -2.0966 C.3     
  29 C29           -0.2596     6.1619    -2.1873 C.3     
  30 C30            1.0858     9.6640    -2.0889 C.3     
  31 H31            1.5804     7.8718    -2.9265 H       
  32 H32           -0.4881     1.7892     0.8418 H       
  33 C33            0.4577    10.1734    -3.3876 C.3     
  34 C34            0.4377    11.7033    -3.3788 C.3     
  35 C35           -0.1904    12.2127    -4.6776 C.3     
  36 O36            0.5784    11.7528    -5.7909 O.3     
  37 C37           -1.6002    11.6926    -4.7914 C.ar    
  38 C38           -0.2101    13.7195    -4.6688 C.ar    
  39 C39           -0.1257    14.4188    -5.8583 C.ar    
  40 C40           -0.1436    15.8010    -5.8503 C.ar    
  41 C41           -0.2465    16.4839    -4.6528 C.ar    
  42 C42           -0.3318    15.7847    -3.4634 C.ar    
  43 C43           -0.3182    14.4024    -3.4718 C.ar    
  44 C44           -2.1534    11.4622    -6.0372 C.ar    
  45 C45           -3.4466    10.9851    -6.1416 C.ar    
  46 C46           -4.1865    10.7381    -5.0004 C.ar    
  47 C47           -3.6330    10.9676    -3.7546 C.ar    
  48 C48           -2.3383    11.4405    -3.6501 C.ar    
  49 H49            0.4324    -0.3564    -0.9354 H       
  50 H50            0.6044    -0.3639     0.8362 H       
  51 H51           -1.8569    -0.1819     1.0760 H       
  52 H52           -2.0289    -0.1745    -0.6956 H       
  53 H53           -0.9756    -2.4165    -0.8073 H       
  54 H54           -0.8035    -2.4239     0.9643 H       
  55 H55           -3.2403    -2.5630    -1.7172 H       
  56 H56           -4.7141    -4.3579    -0.5421 H       
  57 H57           -4.6644    -6.8125    -0.3536 H       
  58 H58           -2.7263    -7.9292     0.6760 H       
  59 H59           -0.8375    -6.5913     1.5162 H       
  60 H60           -0.8852    -4.1370     1.3234 H       
  61 H61           -5.4488    -2.0603     0.6882 H       
  62 H62           -6.4901    -1.1032     2.7038 H       
  63 H63           -5.0979    -0.5146     4.6476 H       
  64 H64           -2.6644    -0.8838     4.5761 H       
  65 H65           -1.6237    -1.8453     2.5622 H       
  66 H66            1.9032     1.5624     0.8514 H       
  67 H67            1.8514     1.6667    -0.9242 H       
  68 H68            0.8549     3.8046     1.0135 H       
  69 H69            2.3699     3.8731     0.0801 H       
  70 H70            1.1014     3.8063    -2.0304 H       
  71 H71           -1.3664     3.7813    -0.2316 H       
  72 H72           -1.3617     3.8340    -2.0116 H       
  73 H73           -0.1994     1.6452    -2.0737 H       
  74 H74           -1.7393     1.5242    -1.1903 H       
  75 H75           -0.0291     5.8523    -0.0649 H       
  76 H76            2.4335     5.8244    -0.0674 H       
  77 H77            2.4505     5.8778    -1.8473 H       
  78 H78            1.2721     8.0138    -0.0124 H       
  79 H79            2.8181     8.1343    -0.8851 H       
  80 H80           -0.7708     7.9939    -1.1761 H       
  81 H81           -0.8103     8.0990    -2.9519 H       
  82 H82            0.2378     5.8562    -3.1077 H       
  83 H83           -1.2836     5.7882    -2.1848 H       
  84 H84            0.4994    10.0148    -1.2396 H       
  85 H85            2.1055    10.0402    -2.0065 H       
  86 H86            1.0441     9.8226    -4.2369 H       
  87 H87           -0.5620     9.7972    -3.4700 H       
  88 H88           -0.1487    12.0541    -2.5296 H       
  89 H89            1.4574    12.0795    -3.2964 H       
  90 H90            1.4985    12.0501    -5.7832 H       
  91 H91           -0.0453    13.8852    -6.7938 H       
  92 H92           -0.0770    16.3473    -6.7795 H       
  93 H93           -0.2598    17.5638    -4.6465 H       
  94 H94           -0.4118    16.3183    -2.5279 H       
  95 H95           -0.3848    13.8561    -2.5426 H       
  96 H96           -1.5754    11.6552    -6.9288 H       
  97 H97           -3.8791    10.8058    -7.1149 H       
  98 H98           -5.1971    10.3660    -5.0820 H       
  99 H99           -4.2112    10.7749    -2.8630 H       
 100 H100          -1.9058    11.6199    -2.6768 H       
@<TRIPOS>BOND
   1    1    2 1
   2    1   19 1
   3    1   32 1
   4    1   23 1
   5    2    3 1
   6    2   49 1
   7    2   50 1
   8    3    4 1
   9    3   51 1
  10    3   52 1
  11    4    5 1
  12    4   53 1
  13    4   54 1
  14    5    6 1
  15    5    7 1
  16    5    8 1
  17    6    9 ar
  18    6   13 ar
  19    7   14 ar
  20    7   18 ar
  21    8   55 1
  22    9   10 ar
  23    9   56 1
  24   10   11 ar
  25   10   57 1
  26   11   12 ar
  27   11   58 1
  28   12   13 ar
  29   12   59 1
  30   13   60 1
  31   14   15 ar
  32   14   61 1
  33   15   16 ar
  34   15   62 1
  35   16   17 ar
  36   16   63 1
  37   17   18 ar
  38   17   64 1
  39   18   65 1
  40   19   20 1
  41   19   66 1
  42   19   67 1
  43   20   21 1
  44   20   68 1
  45   20   69 1
  46   21   22 1
  47   21   24 1
  48   21   70 1
  49   22   23 1
  50   22   71 1
  51   22   72 1
  52   23   73 1
  53   23   74 1
  54   24   25 1
  55   24   29 1
  56   24   75 1
  57   25   26 1
  58   25   76 1
  59   25   77 1
  60   26   27 1
  61   26   78 1
  62   26   79 1
  63   27   28 1
  64   27   30 1
  65   27   31 1
  66   28   29 1
  67   28   80 1
  68   28   81 1
  69   29   82 1
  70   29   83 1
  71   30   33 1
  72   30   84 1
  73   30   85 1
  74   33   34 1
  75   33   86 1
  76   33   87 1
  77   34   35 1
  78   34   88 1
  79   34   89 1
  80   35   36 1
  81   35   37 1
  82   35   38 1
  83   36   90 1
  84   37   44 ar
  85   37   48 ar
  86   38   39 ar
  87   38   43 ar
  88   39   40 ar
  89   39   91 1
  90   40   41 ar
  91   40   92 1
  92   41   42 ar
  93   41   93 1
  94   42   43 ar
  95   42   94 1
  96   43   95 1
  97   44   45 ar
  98   44   96 1
  99   45   46 ar
 100   45   97 1
 101   46   47 ar
 102   46   98 1
 103   47   48 ar
 104   47   99 1
 105   48  100 1

#	End of record

