#	Name: ASD08151001
#	Creating user name:	WinNT
#	Creation time:	15. 06. 2019 21:16

#	Modifying user name:	WinNT
#	Modification time:	15. 06. 2019 21:16

#	Program:	/corina/corina34_cracker 3.40 0067  02.08.2006

@<TRIPOS>MOLECULE
ASD08151001
  35   37    0    0    0
SMALL
NO_CHARGES


@<TRIPOS>ATOM
   1 C1            -0.0187     1.5258     0.0104 C.3     
   2 C2             0.0021    -0.0041     0.0020 C.3     
   3 C3             1.9643     2.4662     1.1631 C.ar    
   4 C4             1.3951     2.0474    -0.0003 C.ar    
   5 C5             2.1008     2.0935    -1.2007 C.ar    
   6 C6             3.3797     2.5586    -1.2451 C.ar    
   7 C7             4.0014     2.9998    -0.0652 C.ar    
   8 C8             5.3213     3.4857    -0.0778 C.ar    
   9 C9             5.9005     3.9066     1.0761 C.ar    
  10 C10            5.1986     3.8648     2.2918 C.ar    
  11 C11            3.9007     3.3925     2.3381 C.ar    
  12 C12            3.2832     2.9530     1.1567 C.ar    
  13 C13            5.1756     4.2972     4.7527 C.ar    
  14 C14            5.8563     4.3312     3.5371 C.ar    
  15 C15            7.1682     4.8110     3.5099 C.ar    
  16 C16            7.7378     5.2346     4.7010 C.ar    
  17 C17            6.9941     5.1686     5.8676 C.ar    
  18 N18            5.7574     4.7098     5.8599 N.ar    
  19 F19            9.0037     5.7059     4.7234 F       
  20 N20           -0.7292     2.0124    -1.1797 N.3     
  21 H21           -0.5289     1.8773     0.9072 H       
  22 H22            0.5123    -0.3556    -0.8948 H       
  23 H23            0.5293    -0.3651     0.8851 H       
  24 H24           -1.0205    -0.3814     0.0098 H       
  25 H25            1.4041     2.4290     2.0857 H       
  26 H26            1.6263     1.7548    -2.1098 H       
  27 H27            3.9139     2.5878    -2.1833 H       
  28 H28            5.8741     3.5237    -1.0048 H       
  29 H29            6.9144     4.2781     1.0587 H       
  30 H30            3.3655     3.3625     3.2757 H       
  31 H31            4.1595     3.9327     4.7865 H       
  32 H32            7.7244     4.8507     2.5850 H       
  33 H33            7.4335     5.4974     6.7978 H       
  34 H34           -0.2400     1.7542    -2.0236 H       
  35 H35           -1.6803     1.6760    -1.1957 H       
@<TRIPOS>BOND
   1    1    2 1
   2    1    4 1
   3    1   20 1
   4    1   21 1
   5    2   22 1
   6    2   23 1
   7    2   24 1
   8    3    4 ar
   9    3   12 ar
  10    3   25 1
  11    4    5 ar
  12    5    6 ar
  13    5   26 1
  14    6    7 ar
  15    6   27 1
  16    7    8 ar
  17    7   12 ar
  18    8    9 ar
  19    8   28 1
  20    9   10 ar
  21    9   29 1
  22   10   11 ar
  23   10   14 1
  24   11   12 ar
  25   11   30 1
  26   13   14 ar
  27   13   18 ar
  28   13   31 1
  29   14   15 ar
  30   15   16 ar
  31   15   32 1
  32   16   17 ar
  33   16   19 1
  34   17   18 ar
  35   17   33 1
  36   20   34 1
  37   20   35 1

#	End of record

