#	Name: ASD01918622
#	Creating user name:	WinNT
#	Creation time:	15. 06. 2019 20:11

#	Modifying user name:	WinNT
#	Modification time:	15. 06. 2019 20:11

#	Program:	/corina/corina34_cracker 3.40 0067  02.08.2006

@<TRIPOS>MOLECULE
ASD01918622
  40   43    0    0    0
SMALL
NO_CHARGES


@<TRIPOS>ATOM
   1 H1             0.0021    -0.0041     0.0020 H       
   2 C2            -0.0127     1.0858     0.0080 C.3     
   3 C3            -0.3019     1.7686    -1.3352 C.3     
   4 C4             0.7141     2.8490    -0.9355 C.3     
   5 C5             1.3591     1.8109    -0.0012 C.3     
   6 H6             2.2176     1.2643    -0.3917 H       
   7 N7             1.4683     2.2893     1.3915 N.am    
   8 C8             0.2407     2.2856     1.9355 C.2     
   9 O9            -0.0048     2.7593     3.0279 O.2     
  10 N10           -0.6854     1.6999     1.1655 N.am    
  11 C11           -2.1274     1.6898     1.4240 C.3     
  12 C12            2.6431     2.6778     2.0311 C.ar    
  13 C13            3.8309     2.7346     1.3082 C.ar    
  14 C14            4.9921     3.1204     1.9472 C.ar    
  15 C15            4.9268     3.4421     3.3111 C.ar    
  16 C16            3.6968     3.3607     3.9677 C.ar    
  17 N17            2.6124     2.9930     3.3172 N.ar    
  18 C18            6.1034     3.8474     4.0196 C.1     
  19 C19            7.0681     4.1797     4.6003 C.1     
  20 C20            8.2448     4.5849     5.3087 C.ar    
  21 C21            9.4703     4.6690     4.6437 C.ar    
  22 C22           10.6011     5.0612     5.3336 C.ar    
  23 F23           11.7873     5.1431     4.6921 F       
  24 C24           10.5217     5.3712     6.6819 C.ar    
  25 C25            9.3115     5.2898     7.3473 C.ar    
  26 C26            8.1714     4.9043     6.6695 C.ar    
  27 F27            6.9892     4.8312     7.3194 F       
  28 H28            0.0073     1.1789    -2.1982 H       
  29 H29           -1.3222     2.1421    -1.4223 H       
  30 H30            1.3631     3.1596    -1.7543 H       
  31 H31            0.2676     3.6914    -0.4071 H       
  32 H32           -2.3848     0.8090     2.0123 H       
  33 H33           -2.4040     2.5885     1.9752 H       
  34 H34           -2.6661     1.6642     0.4768 H       
  35 H35            3.8441     2.4794     0.2588 H       
  36 H36            5.9279     3.1728     1.4104 H       
  37 H37            3.6337     3.6055     5.0177 H       
  38 H38            9.5337     4.4277     3.5929 H       
  39 H39           11.4090     5.6776     7.2160 H       
  40 H40            9.2573     5.5323     8.3984 H       
@<TRIPOS>BOND
   1    1    2 1
   2    2    5 1
   3    2   10 1
   4    2    3 1
   5    3    4 1
   6    3   28 1
   7    3   29 1
   8    4    5 1
   9    4   30 1
  10    4   31 1
  11    5    6 1
  12    5    7 1
  13    7    8 am
  14    7   12 1
  15    8    9 2
  16    8   10 am
  17   10   11 1
  18   11   32 1
  19   11   33 1
  20   11   34 1
  21   12   17 ar
  22   12   13 ar
  23   13   14 ar
  24   13   35 1
  25   14   15 ar
  26   14   36 1
  27   15   16 ar
  28   15   18 1
  29   16   17 ar
  30   16   37 1
  31   18   19 3
  32   19   20 1
  33   20   26 ar
  34   20   21 ar
  35   21   22 ar
  36   21   38 1
  37   22   23 1
  38   22   24 ar
  39   24   25 ar
  40   24   39 1
  41   25   26 ar
  42   25   40 1
  43   26   27 1

#	End of record

