#	Name: ASD02500287
#	Creating user name:	WinNT
#	Creation time:	15. 06. 2019 20:22

#	Modifying user name:	WinNT
#	Modification time:	15. 06. 2019 20:22

#	Program:	/corina/corina34_cracker 3.40 0067  02.08.2006

@<TRIPOS>MOLECULE
ASD02500287
  62   66    0    0    0
SMALL
NO_CHARGES


@<TRIPOS>ATOM
   1 N1            -5.1973     4.9314     0.7590 N.ar    
   2 C2            -6.4068     5.4063     0.5856 C.ar    
   3 C3            -7.4753     4.9997     1.3820 C.ar    
   4 C4            -7.2758     4.0824     2.3740 C.ar    
   5 C5            -5.9757     3.5742     2.5570 C.ar    
   6 C6            -5.6940     2.6293     3.5563 C.ar    
   7 C7            -4.4232     2.1622     3.7017 C.ar    
   8 C8            -3.3977     2.6101     2.8719 C.ar    
   9 C9            -3.6353     3.5255     1.8931 C.ar    
  10 C10           -4.9342     4.0313     1.7117 C.ar    
  11 S11           -2.3197     4.0752     0.8580 S.o2    
  12 O12           -2.3613     5.4955     0.8763 O.2     
  13 O13           -1.1725     3.3264     1.2354 O.2     
  14 N14           -2.6892     3.6165    -0.6897 N.am    
  15 C15           -2.7087     2.2682    -1.0293 C.ar    
  16 C16           -2.3289     1.8682    -2.3077 C.ar    
  17 C17           -2.3472     0.5349    -2.6468 C.ar    
  18 C18           -2.7478    -0.4187    -1.7060 C.ar    
  19 C19           -3.1285    -0.0140    -0.4235 C.ar    
  20 C20           -3.1026     1.3208    -0.0886 C.ar    
  21 C21           -1.8978     2.8968    -3.3213 C.3     
  22 F22           -1.5666     2.2586    -4.5214 F       
  23 F23           -2.9443     3.7977    -3.5455 F       
  24 F24           -0.7822     3.5888    -2.8378 F       
  25 C25           -2.7690    -1.8491    -2.0665 C.2     
  26 O26           -3.2073    -2.1976    -3.1458 O.2     
  27 N27           -2.3027    -2.7695    -1.1994 N.am    
  28 C28           -2.2282    -4.1867    -1.5812 C.3     
  29 C29           -0.7885    -4.6743    -1.3771 C.3     
  30 N30           -0.3448    -4.2786    -0.0330 N.am    
  31 C31           -0.4192    -2.8614     0.3488 C.3     
  32 C32           -1.8537    -2.3730     0.1427 C.3     
  33 C33            0.1215    -5.1991     0.8340 C.2     
  34 C34            0.6632    -4.7745     2.1424 C.ar    
  35 C35            1.3704    -3.5720     2.2639 C.ar    
  36 C36            1.8562    -3.2201     3.5106 C.ar    
  37 C37            1.6300    -4.0593     4.5871 C.ar    
  38 N38            0.9604    -5.1868     4.4427 N.ar    
  39 C39            0.4734    -5.5623     3.2782 C.ar    
  40 O40            0.0968    -6.3783     0.5402 O.2     
  41 H41           -6.5795     6.1324    -0.1950 H       
  42 H42           -8.4605     5.4097     1.2152 H       
  43 H43           -8.0925     3.7562     3.0009 H       
  44 H44           -6.4806     2.2751     4.2061 H       
  45 H45           -4.2074     1.4353     4.4707 H       
  46 H46           -2.3978     2.2250     3.0077 H       
  47 H47           -2.8919     4.2883    -1.3594 H       
  48 H48           -2.0528     0.2252    -3.6387 H       
  49 H49           -3.4384    -0.7482     0.3054 H       
  50 H50           -3.3921     1.6337     0.9037 H       
  51 H51           -2.9041    -4.7700    -0.9559 H       
  52 H52           -2.5072    -4.2984    -2.6290 H       
  53 H53           -0.7534    -5.7599    -1.4691 H       
  54 H54           -0.1389    -4.2201    -2.1252 H       
  55 H55           -0.1403    -2.7497     1.3966 H       
  56 H56            0.2567    -2.2781    -0.2765 H       
  57 H57           -1.8854    -1.2872     0.2331 H       
  58 H58           -2.5024    -2.8242     0.8935 H       
  59 H59            1.5327    -2.9359     1.4063 H       
  60 H60            2.4065    -2.3002     3.6420 H       
  61 H61            2.0081    -3.7870     5.5614 H       
  62 H62           -0.0736    -6.4903     3.2007 H       
@<TRIPOS>BOND
   1    1    2 ar
   2    1   10 ar
   3    2    3 ar
   4    2   41 1
   5    3    4 ar
   6    3   42 1
   7    4    5 ar
   8    4   43 1
   9    5    6 ar
  10    5   10 ar
  11    6    7 ar
  12    6   44 1
  13    7    8 ar
  14    7   45 1
  15    8    9 ar
  16    8   46 1
  17    9   10 ar
  18    9   11 1
  19   11   12 2
  20   11   13 2
  21   11   14 am
  22   14   15 1
  23   14   47 1
  24   15   16 ar
  25   15   20 ar
  26   16   17 ar
  27   16   21 1
  28   17   18 ar
  29   17   48 1
  30   18   19 ar
  31   18   25 1
  32   19   20 ar
  33   19   49 1
  34   20   50 1
  35   21   22 1
  36   21   23 1
  37   21   24 1
  38   25   26 2
  39   25   27 am
  40   27   28 1
  41   27   32 1
  42   28   29 1
  43   28   51 1
  44   28   52 1
  45   29   30 1
  46   29   53 1
  47   29   54 1
  48   30   31 1
  49   30   33 am
  50   31   32 1
  51   31   55 1
  52   31   56 1
  53   32   57 1
  54   32   58 1
  55   33   34 1
  56   33   40 2
  57   34   35 ar
  58   34   39 ar
  59   35   36 ar
  60   35   59 1
  61   36   37 ar
  62   36   60 1
  63   37   38 ar
  64   37   61 1
  65   38   39 ar
  66   39   62 1

#	End of record

