#	Name: ASD01148743
#	Creating user name:	WinNT
#	Creation time:	15. 06. 2019 19:03

#	Modifying user name:	WinNT
#	Modification time:	15. 06. 2019 19:03

#	Program:	/corina/corina34_cracker 3.40 0067  02.08.2006

@<TRIPOS>MOLECULE
ASD01148743
  56   59    0    0    0
SMALL
NO_CHARGES


@<TRIPOS>ATOM
   1 N1            -0.0152     1.3475     0.0831 N.pl3   
   2 C2             0.0017     0.0059    -0.1105 C.2     
   3 C3             1.3168    -0.4048    -0.1566 C.2     
   4 C4             2.1200     0.7519     0.0186 C.2     
   5 C5             1.2785     1.8073     0.1626 C.2     
   6 C6             1.7974    -1.7836    -0.3509 C.2     
   7 O7             1.0002    -2.6915    -0.4901 O.2     
   8 N8             3.1205    -2.0390    -0.3745 N.am    
   9 C9             3.5985    -3.4102    -0.5678 C.3     
  10 O10            5.6309    -2.6215    -1.6294 O.3     
  11 C11            5.1284    -3.4237    -0.5544 C.3     
  12 C12            5.6414    -4.8640    -0.7678 C.3     
  13 C13            6.8708    -4.6427    -1.6906 C.3     
  14 C14            6.3905    -3.4364    -2.5361 C.3     
  15 C15           -1.1666     2.1399     0.1807 C.ar    
  16 C16           -2.0079     2.0126     1.2779 C.ar    
  17 C17           -3.1422     2.7951     1.3712 C.ar    
  18 C18           -3.4406     3.7043     0.3730 C.ar    
  19 C19           -2.6047     3.8335    -0.7210 C.ar    
  20 C20           -1.4657     3.0582    -0.8170 C.ar    
  21 S21           -4.8892     4.7000     0.4950 S.o2    
  22 O22           -5.2236     5.0862    -0.8310 O.2     
  23 O23           -5.7843     4.0029     1.3507 O.2     
  24 N24           -4.4645     6.0875     1.2931 N.am    
  25 C25           -1.2075    -0.8825    -0.2510 C.3     
  26 C26            1.6844     3.2142     0.3694 C.ar    
  27 C27            0.7894     4.1263     0.9303 C.ar    
  28 C28            1.1738     5.4372     1.1213 C.ar    
  29 C29            2.4448     5.8489     0.7573 C.ar    
  30 C30            3.3370     4.9486     0.2000 C.ar    
  31 C31            2.9659     3.6336     0.0099 C.ar    
  32 Cl32           2.9213     7.5005     1.0002 Cl      
  33 H33            3.1993     0.7861     0.0349 H       
  34 H34            3.7563    -1.3148    -0.2635 H       
  35 H35            3.2225    -4.0428     0.2363 H       
  36 H36            3.2403    -3.7883    -1.5253 H       
  37 H37            5.4944    -3.0380     0.3972 H       
  38 H38            5.9426    -5.3128     0.1787 H       
  39 H39            4.8878    -5.4745    -1.2654 H       
  40 H40            7.7571    -4.3872    -1.1097 H       
  41 H41            7.0529    -5.5149    -2.3184 H       
  42 H42            5.7601    -3.7772    -3.3574 H       
  43 H43            7.2451    -2.8794    -2.9202 H       
  44 H44           -1.7757     1.3021     2.0575 H       
  45 H45           -3.7969     2.6965     2.2244 H       
  46 H46           -2.8404     4.5445    -1.4990 H       
  47 H47           -0.8107     3.1629    -1.6692 H       
  48 H48           -3.5504     6.2150     1.5914 H       
  49 H49           -5.1299     6.7727     1.4623 H       
  50 H50           -1.4887    -0.9498    -1.3019 H       
  51 H51           -0.9730    -1.8777     0.1268 H       
  52 H52           -2.0352    -0.4626     0.3205 H       
  53 H53           -0.2024     3.8064     1.2139 H       
  54 H54            0.4820     6.1440     1.5553 H       
  55 H55            4.3268     5.2755    -0.0827 H       
  56 H56            3.6643     2.9311    -0.4204 H       
@<TRIPOS>BOND
   1    1    2 1
   2    1    5 1
   3    1   15 1
   4    2    3 2
   5    2   25 1
   6    3    4 1
   7    3    6 1
   8    4    5 2
   9    4   33 1
  10    5   26 1
  11    6    7 2
  12    6    8 am
  13    8    9 1
  14    8   34 1
  15    9   11 1
  16    9   35 1
  17    9   36 1
  18   10   11 1
  19   10   14 1
  20   11   12 1
  21   11   37 1
  22   12   13 1
  23   12   38 1
  24   12   39 1
  25   13   14 1
  26   13   40 1
  27   13   41 1
  28   14   42 1
  29   14   43 1
  30   15   16 ar
  31   15   20 ar
  32   16   17 ar
  33   16   44 1
  34   17   18 ar
  35   17   45 1
  36   18   19 ar
  37   18   21 1
  38   19   20 ar
  39   19   46 1
  40   20   47 1
  41   21   22 2
  42   21   23 2
  43   21   24 am
  44   24   48 1
  45   24   49 1
  46   25   50 1
  47   25   51 1
  48   25   52 1
  49   26   27 ar
  50   26   31 ar
  51   27   28 ar
  52   27   53 1
  53   28   29 ar
  54   28   54 1
  55   29   30 ar
  56   29   32 1
  57   30   31 ar
  58   30   55 1
  59   31   56 1

#	End of record

