#	Name: ASD06560007
#	Creating user name:	WinNT
#	Creation time:	15. 06. 2019 21:06

#	Modifying user name:	WinNT
#	Modification time:	15. 06. 2019 21:06

#	Program:	/corina/corina34_cracker 3.40 0067  02.08.2006

@<TRIPOS>MOLECULE
ASD06560007
  52   56    0    0    0
SMALL
NO_CHARGES


@<TRIPOS>ATOM
   1 C1             0.2159    -3.1063     5.2908 C.3     
   2 C2             0.3491    -3.7979     3.9585 C.ar    
   3 C3            -0.4923    -4.8463     3.6369 C.ar    
   4 C4            -0.3701    -5.4808     2.4148 C.ar    
   5 C5             0.5933    -5.0664     1.5142 C.ar    
   6 C6             1.4342    -4.0173     1.8355 C.ar    
   7 C7             1.3091    -3.3801     3.0558 C.ar    
   8 C8             0.7272    -5.7587     0.1823 C.3     
   9 C9            -0.6394    -6.2961    -0.2521 C.3     
  10 C10           -1.5782    -5.1091    -0.5210 C.3     
  11 C11           -1.4609    -4.1335     0.6726 C.3     
  12 C12           -0.2995    -3.1892     0.2985 C.3     
  13 C13            0.1795    -3.6801    -1.0871 C.3     
  14 C14            1.2461    -4.7632    -0.8593 C.3     
  15 C15            2.5154    -4.1240    -0.3581 C.2     
  16 O16            2.8171    -2.8179    -0.3810 O.3     
  17 N17            3.9085    -2.6000     0.0915 N.2     
  18 C18            4.4859    -3.7056     0.4920 C.2     
  19 C19            3.5688    -4.7558     0.2075 C.2     
  20 C20            5.8244    -3.8360     1.1197 C.ar    
  21 C21            6.6072    -2.7042     1.3380 C.ar    
  22 C22            7.8511    -2.8305     1.9219 C.ar    
  23 C23            8.3216    -4.0793     2.2906 C.ar    
  24 C24            7.5477    -5.2069     2.0753 C.ar    
  25 C25            6.2999    -5.0900     1.4977 C.ar    
  26 Cl26           9.8873    -4.2318     3.0248 Cl      
  27 N27           -1.0131    -4.3515    -1.6692 N.3     
  28 C28           -1.9775    -3.3658    -2.1753 C.3     
  29 H29            0.8528    -3.6025     6.0231 H       
  30 H30            0.5203    -2.0644     5.1914 H       
  31 H31           -0.8217    -3.1517     5.6216 H       
  32 H32           -1.2450    -5.1701     4.3405 H       
  33 H33           -1.0271    -6.3004     2.1638 H       
  34 H34            2.1871    -3.6938     1.1321 H       
  35 H35            1.9660    -2.5604     3.3069 H       
  36 H36            1.4302    -6.5867     0.2732 H       
  37 H37           -0.5259    -6.8833    -1.1633 H       
  38 H38           -2.6060    -5.4292    -0.6922 H       
  39 H39           -2.3853    -3.5686     0.7930 H       
  40 H40           -1.2269    -4.6789     1.5868 H       
  41 H41           -0.6528    -2.1600     0.2350 H       
  42 H42            0.5056    -3.2703     1.0288 H       
  43 H43            0.5490    -2.8643    -1.7083 H       
  44 H44            1.4430    -5.2845    -1.7961 H       
  45 H45            3.6886    -5.8127     0.3946 H       
  46 H46            6.2412    -1.7297     1.0504 H       
  47 H47            8.4587    -1.9539     2.0912 H       
  48 H48            7.9191    -6.1789     2.3642 H       
  49 H49            5.6967    -5.9701     1.3305 H       
  50 H50           -1.5055    -2.7596    -2.9485 H       
  51 H51           -2.8397    -3.8836    -2.5954 H       
  52 H52           -2.3028    -2.7227    -1.3576 H       
@<TRIPOS>BOND
   1    1    2 1
   2    1   29 1
   3    1   30 1
   4    1   31 1
   5    2    3 ar
   6    2    7 ar
   7    3    4 ar
   8    3   32 1
   9    4    5 ar
  10    4   33 1
  11    5    6 ar
  12    5    8 1
  13    6    7 ar
  14    6   34 1
  15    7   35 1
  16    8    9 1
  17    8   14 1
  18    8   36 1
  19    9   10 1
  20    9   37 1
  21   10   11 1
  22   10   27 1
  23   10   38 1
  24   11   12 1
  25   11   39 1
  26   11   40 1
  27   12   13 1
  28   12   41 1
  29   12   42 1
  30   13   14 1
  31   13   27 1
  32   13   43 1
  33   14   15 1
  34   14   44 1
  35   15   16 1
  36   15   19 2
  37   16   17 1
  38   17   18 2
  39   18   19 1
  40   18   20 1
  41   19   45 1
  42   20   21 ar
  43   20   25 ar
  44   21   22 ar
  45   21   46 1
  46   22   23 ar
  47   22   47 1
  48   23   24 ar
  49   23   26 1
  50   24   25 ar
  51   24   48 1
  52   25   49 1
  53   27   28 1
  54   28   50 1
  55   28   51 1
  56   28   52 1

#	End of record

