#	Name: ASD06300002
#	Creating user name:	WinNT
#	Creation time:	15. 06. 2019 21:05

#	Modifying user name:	WinNT
#	Modification time:	15. 06. 2019 21:05

#	Program:	/corina/corina34_cracker 3.40 0067  02.08.2006

@<TRIPOS>MOLECULE
ASD06300002
 285  291    0    0    0
SMALL
NO_CHARGES


@<TRIPOS>ATOM
   1 N1            13.3237    -9.3287     4.7141 N.am    
   2 C2             2.0411   -36.6572   -22.7596 C.3     
   3 C3             2.0638   -35.4661   -21.7995 C.3     
   4 C4             1.3134   -35.8205   -20.5415 C.2     
   5 N5             1.4276   -34.3115   -22.4386 N.am    
   6 O6             0.3429   -35.1725   -20.2114 O.2     
   7 O7             0.6884   -37.0532   -22.9953 O.3     
   8 C8             2.4555   -38.8020   -15.2332 C.3     
   9 C9             1.5323   -38.0837   -16.1833 C.2     
  10 N10            2.1977   -38.3455   -13.8609 N.3     
  11 O11            0.4815   -37.6406   -15.7852 O.2     
  12 C12            2.9011   -41.4321   -13.1968 C.ar    
  13 C13            3.8328   -42.0993   -12.4238 C.ar    
  14 C14            5.0881   -42.3707   -12.9350 C.ar    
  15 C15            5.4116   -41.9753   -14.2195 C.ar    
  16 C16            4.4801   -41.3076   -14.9924 C.ar    
  17 C17            3.2247   -41.0362   -14.4811 C.ar    
  18 C18            2.2089   -40.3092   -15.3241 C.3     
  19 C19            0.2830   -37.6408   -12.5802 C.3     
  20 C20            0.4104   -36.3034   -13.2631 C.2     
  21 N21            0.8475   -38.6870   -13.4432 N.3     
  22 O22            1.2240   -36.1502   -14.1495 O.2     
  23 C23            1.6839   -39.9325   -10.5748 C.ar    
  24 C24            1.4461   -41.1037    -9.8801 C.ar    
  25 C25            0.3077   -41.2292    -9.1060 C.ar    
  26 C26           -0.5927   -40.1834    -9.0263 C.ar    
  27 C27           -0.3552   -39.0124    -9.7214 C.ar    
  28 C28            0.7832   -38.8868   -10.4955 C.ar    
  29 C29            1.0427   -37.6099   -11.2525 C.3     
  30 C30           -1.4727   -33.1382   -13.3463 C.3     
  31 C31           -0.1817   -33.9493   -13.4741 C.3     
  32 C32            0.9311   -33.2403   -12.7460 C.2     
  33 N33           -0.3796   -35.2776   -12.8888 N.am    
  34 O34            1.5026   -33.7905   -11.8286 O.2     
  35 C35           -2.5461   -33.7648   -14.1985 C.2     
  36 O36           -2.2776   -34.6958   -14.9204 O.2     
  37 O37           -3.8003   -33.2887   -14.1557 O.3     
  38 C38            3.7185   -31.7148   -13.0090 C.3     
  39 C39            2.3730   -31.3056   -12.4065 C.3     
  40 C40            2.1935   -29.8156   -12.5434 C.2     
  41 N41            1.2912   -31.9949   -13.1143 N.am    
  42 O42            1.2545   -29.3730   -13.1705 O.2     
  43 C43            2.9022   -27.5265   -12.1021 C.3     
  44 C44            4.2365   -26.8435   -11.9472 C.2     
  45 N45            3.0766   -28.9750   -11.9690 N.am    
  46 O46            5.2349   -27.5018   -11.7455 O.2     
  47 C47            0.2372   -28.8223   -10.6643 C.ar    
  48 C48           -1.0180   -29.3623   -10.8733 C.ar    
  49 C49           -1.9342   -28.6955   -11.6651 C.ar    
  50 C50           -1.5954   -27.4884   -12.2474 C.ar    
  51 C51           -0.3400   -26.9486   -12.0387 C.ar    
  52 C52            0.5762   -27.6154   -11.2470 C.ar    
  53 C53            1.9445   -27.0265   -11.0188 C.3     
  54 C54            5.9067   -24.6137   -10.3965 C.3     
  55 C55            5.6176   -24.8371   -11.8822 C.3     
  56 C56            5.5876   -23.5088   -12.5934 C.2     
  57 N57            4.3204   -25.5011   -12.0328 N.am    
  58 O58            4.5817   -23.1519   -13.1693 O.2     
  59 C59            6.0608   -25.9662    -9.6979 C.3     
  60 C60            7.2943   -26.6860   -10.2466 C.3     
  61 C61            6.2256   -25.7469    -8.1927 C.3     
  62 C62            6.9844   -21.6317   -14.7594 C.3     
  63 C63            6.6494   -21.4262   -13.2807 C.3     
  64 C64            7.6639   -20.5009   -12.6597 C.2     
  65 N65            6.6786   -22.7175   -12.5894 N.am    
  66 O66            8.5015   -20.9408   -11.9009 O.2     
  67 C67            5.8641   -22.4291   -15.4301 C.3     
  68 C68            6.1940   -22.6315   -16.8865 C.2     
  69 O69            7.2239   -22.1822   -17.3431 O.2     
  70 N70            5.3447   -23.3119   -17.6817 N.am    
  71 C71            8.7543   -17.0300   -13.2624 C.3     
  72 C72            8.6764   -18.2986   -12.4107 C.3     
  73 C73            8.3350   -17.9296   -10.9900 C.2     
  74 N74            7.6404   -19.1844   -12.9476 N.am    
  75 O75            7.3257   -18.3639   -10.4765 O.2     
  76 C76            9.2486   -17.3808   -14.6421 C.2     
  77 C77           10.5281   -17.4169   -15.0467 C.2     
  78 N78           10.5903   -17.7764   -16.3654 N.pl3   
  79 C79            9.3201   -17.9857   -16.8540 C.ar    
  80 C80            8.4245   -17.7533   -15.7944 C.ar    
  81 C81            8.8218   -18.3574   -18.0986 C.ar    
  82 C82            7.4625   -18.4870   -18.2803 C.ar    
  83 C83            6.5823   -18.2504   -17.2331 C.ar    
  84 C84            7.0508   -17.8982   -15.9989 C.ar    
  85 C85            7.8674   -15.5607    -8.9078 C.3     
  86 C86            8.8194   -16.7584    -8.9089 C.3     
  87 C87           10.0805   -16.3986    -8.1665 C.2     
  88 N88            9.1513   -17.1171   -10.2900 N.am    
  89 O89           11.1511   -16.4378    -8.7350 O.2     
  90 C90            6.5394   -15.9641    -9.5515 C.3     
  91 C91            5.5874   -14.7663    -9.5503 C.3     
  92 C92            4.2594   -15.1698   -10.1941 C.3     
  93 N93            3.3453   -14.0197   -10.1930 N.3     
  94 C94           11.8980   -16.9560    -5.6068 C.3     
  95 C95           11.2445   -15.6832    -6.1489 C.3     
  96 C96           10.9079   -14.7641    -5.0031 C.2     
  97 N97           10.0186   -16.0331    -6.8707 N.am    
  98 O98            9.7573   -14.4338    -4.8085 O.2     
  99 C99           12.3456   -17.8202    -6.7574 C.2     
 100 C100          11.6595   -18.8335    -7.3090 C.2     
 101 N101          12.3829   -19.3847    -8.3313 N.pl3   
 102 C102          13.5827   -18.7226    -8.4657 C.ar    
 103 C103          13.6093   -17.7097    -7.4900 C.ar    
 104 C104          14.6669   -18.8699    -9.3250 C.ar    
 105 C105          15.7522   -18.0299    -9.2072 C.ar    
 106 C106          15.7763   -17.0357    -8.2385 C.ar    
 107 C107          14.7164   -16.8643    -7.3935 C.ar    
 108 C108          11.5041   -11.9718    -3.5840 C.3     
 109 C109          11.5583   -13.4156    -3.0807 C.3     
 110 C110          12.6150   -13.5360    -2.0130 C.2     
 111 N111          11.8856   -14.3091    -4.1946 N.am    
 112 O112          13.5494   -14.2936    -2.1673 O.2     
 113 C113          10.3497   -11.8207    -4.5767 C.3     
 114 C114           9.0212   -12.0469    -3.8522 C.3     
 115 C115          10.3715   -10.4122    -5.1739 C.3     
 116 C116          13.2162   -14.0983     1.0674 C.3     
 117 C117          13.5489   -12.9189     0.1513 C.3     
 118 C118          13.5907   -11.6493     0.9621 C.2     
 119 N119          12.5217   -12.8018    -0.8866 N.am    
 120 O120          12.8367   -10.7365     0.6989 O.2     
 121 C121          13.2960   -15.4017     0.2700 C.3     
 122 C122          12.9684   -16.5634     1.1723 C.2     
 123 O123          12.6987   -16.3688     2.3339 O.2     
 124 O124          12.9761   -17.8143     0.6856 O.3     
 125 C125          15.8941   -10.1333     3.3927 C.3     
 126 C126          14.5067   -10.2939     2.7680 C.3     
 127 C127          13.4692   -10.3602     3.8589 C.2     
 128 N128          14.4661   -11.5281     1.9798 N.am    
 129 O129          12.7651   -11.3417     3.9673 O.2     
 130 N130          19.3146    -9.5963     1.8507 N.pl3   
 131 C131          20.6406    -9.4302     2.1735 C.2     
 132 N132          21.0129    -9.4365     3.4226 N.2     
 133 N133          21.5739    -9.2575     1.1789 N.pl3   
 134 C134          16.9327    -9.9410     2.2858 C.3     
 135 C135          18.3201    -9.7804     2.9105 C.3     
 136 C136           1.9147   -37.9205   -17.6104 C.2     
 137 N137           1.7209   -36.8576   -19.7834 N.am    
 138 C138           0.9915   -37.2022   -18.5605 C.3     
 139 C139          -0.1888   -38.1110   -18.9096 C.3     
 140 C140          -1.1885   -37.3394   -19.7734 C.3     
 141 C141          -2.3688   -38.2482   -20.1225 C.3     
 142 C142          -3.3685   -37.4767   -20.9863 C.3     
 143 O143           2.9655   -38.3636   -18.0085 O.2     
 144 O144           3.3202   -33.7408   -23.4459 O.2     
 145 C145           2.1466   -33.5080   -23.2473 C.2     
 146 C146           1.4923   -32.3203   -23.9048 C.3     
 147 H147          13.8869    -8.5437     4.6274 H       
 148 H148          12.6532    -9.3696     5.4138 H       
 149 H149           2.5059   -36.3720   -23.7033 H       
 150 H150           2.5918   -37.4888   -22.3199 H       
 151 H151           3.0959   -35.2203   -21.5498 H       
 152 H152           0.4890   -34.1253   -22.2798 H       
 153 H153           0.5979   -37.8051   -23.5967 H       
 154 H154           3.4903   -38.5864   -15.4994 H       
 155 H155           2.8805   -38.7218   -13.2204 H       
 156 H156           1.9189   -41.2239   -12.7990 H       
 157 H157           3.5801   -42.4082   -11.4202 H       
 158 H158           5.8163   -42.8914   -12.3308 H       
 159 H159           6.3926   -42.1867   -14.6187 H       
 160 H160           4.7329   -40.9984   -15.9958 H       
 161 H161           1.2064   -40.5359   -14.9610 H       
 162 H162           2.3008   -40.6305   -16.3616 H       
 163 H163          -0.7693   -37.8537   -12.3919 H       
 164 H164           0.2541   -38.8566   -14.2413 H       
 165 H165           2.5755   -39.8328   -11.1760 H       
 166 H166           2.1496   -41.9208    -9.9423 H       
 167 H167           0.1216   -42.1445    -8.5638 H       
 168 H168          -1.4825   -40.2817    -8.4221 H       
 169 H169          -1.0588   -38.1954    -9.6595 H       
 170 H170           2.1108   -37.5135   -11.4472 H       
 171 H171           0.7034   -36.7606   -10.6594 H       
 172 H172          -1.7946   -33.1293   -12.3049 H       
 173 H173          -1.2942   -32.1161   -13.6801 H       
 174 H174           0.0804   -34.0515   -14.5271 H       
 175 H175          -1.0792   -35.4189   -12.2320 H       
 176 H176          -4.4543   -33.7231   -14.7202 H       
 177 H177           4.5234   -31.2020   -12.4824 H       
 178 H178           3.8483   -32.7925   -12.9100 H       
 179 H179           3.7425   -31.4413   -14.0639 H       
 180 H180           2.3491   -31.5791   -11.3517 H       
 181 H181           0.8341   -31.5548   -13.8480 H       
 182 H182           2.4895   -27.2990   -13.0850 H       
 183 H183           3.8276   -29.3290   -11.4675 H       
 184 H184           0.9515   -29.3410   -10.0421 H       
 185 H185          -1.2827   -30.3054   -10.4184 H       
 186 H186          -2.9146   -29.1178   -11.8289 H       
 187 H187          -2.3110   -26.9678   -12.8665 H       
 188 H188          -0.0752   -26.0057   -12.4939 H       
 189 H189           2.3126   -27.3317   -10.0393 H       
 190 H190           1.8836   -25.9390   -11.0613 H       
 191 H191           6.8281   -24.0415   -10.2876 H       
 192 H192           5.0816   -24.0632    -9.9445 H       
 193 H193           6.3985   -25.4630   -12.3142 H       
 194 H194           3.5219   -24.9745   -12.1941 H       
 195 H195           5.1742   -26.5731    -9.8817 H       
 196 H196           7.4041   -27.6495    -9.7489 H       
 197 H197           7.1769   -26.8422   -11.3189 H       
 198 H198           8.1809   -26.0791   -10.0628 H       
 199 H199           5.3468   -25.2341    -7.8018 H       
 200 H200           6.3354   -26.7104    -7.6950 H       
 201 H201           7.1122   -25.1400    -8.0089 H       
 202 H202           7.0829   -20.6622   -15.2478 H       
 203 H203           7.9227   -22.1795   -14.8466 H       
 204 H204           5.6553   -20.9883   -13.1909 H       
 205 H205           7.4831   -23.0029   -12.1287 H       
 206 H206           5.7656   -23.3986   -14.9417 H       
 207 H207           4.9258   -21.8813   -15.3429 H       
 208 H208           4.5210   -23.6712   -17.3165 H       
 209 H209           5.5571   -23.4421   -18.6191 H       
 210 H210           7.7643   -16.5796   -13.3348 H       
 211 H211           9.4422   -16.3228   -12.7989 H       
 212 H212           9.6387   -18.8102   -12.4320 H       
 213 H213           6.9375   -18.8235   -13.5102 H       
 214 H214          11.3818   -17.1945   -14.4237 H       
 215 H215          11.4075   -17.8696   -16.8797 H       
 216 H216           9.4983   -18.5433   -18.9196 H       
 217 H217           7.0776   -18.7753   -19.2474 H       
 218 H218           5.5194   -18.3562   -17.3924 H       
 219 H219           6.3603   -17.7178   -15.1883 H       
 220 H220           7.6907   -15.2380    -7.8817 H       
 221 H221           8.3121   -14.7426    -9.4744 H       
 222 H222           8.3385   -17.6052    -8.4191 H       
 223 H223           9.9585   -16.7698   -10.7007 H       
 224 H224           6.7161   -16.2867   -10.5775 H       
 225 H225           6.0947   -16.7822    -8.9849 H       
 226 H226           5.4107   -14.4437    -8.5243 H       
 227 H227           6.0321   -13.9482   -10.1170 H       
 228 H228           4.4361   -15.4924   -11.2201 H       
 229 H229           3.8146   -15.9878    -9.6274 H       
 230 H230           2.4603   -14.2608   -10.6133 H       
 231 H231           3.2162   -13.6614    -9.2586 H       
 232 H232          12.7603   -16.6896    -4.9955 H       
 233 H233          11.1775   -17.5040    -4.9995 H       
 234 H234          11.9346   -15.1810    -6.8270 H       
 235 H235           9.1624   -16.0017    -6.4160 H       
 236 H236          10.6816   -19.1650    -6.9925 H       
 237 H237          12.0938   -20.1309    -8.8795 H       
 238 H238          14.6578   -19.6405   -10.0816 H       
 239 H239          16.5931   -18.1461    -9.8750 H       
 240 H240          16.6352   -16.3857    -8.1592 H       
 241 H241          14.7412   -16.0874    -6.6436 H       
 242 H242          11.3488   -11.2986    -2.7409 H       
 243 H243          12.4433   -11.7239    -4.0786 H       
 244 H244          10.5892   -13.6923    -2.6656 H       
 245 H245          12.8058   -14.5733    -4.3502 H       
 246 H246          10.4581   -12.5554    -5.3746 H       
 247 H247           8.9128   -11.3123    -3.0543 H       
 248 H248           8.1988   -11.9393    -4.5594 H       
 249 H249           9.0057   -13.0503    -3.4267 H       
 250 H250          11.3180   -10.2511    -5.6900 H       
 251 H251           9.5491   -10.3046    -5.8810 H       
 252 H252          10.2631    -9.6776    -4.3760 H       
 253 H253          13.9300   -14.1316     1.8905 H       
 254 H254          12.2086   -13.9767     1.4649 H       
 255 H255          14.5199   -13.0840    -0.3155 H       
 256 H256          11.7743   -12.1959    -0.7632 H       
 257 H257          12.5823   -15.3684    -0.5531 H       
 258 H258          14.3037   -15.5233    -0.1275 H       
 259 H259          12.7595   -18.5267     1.3024 H       
 260 H260          15.8982    -9.2636     4.0498 H       
 261 H261          16.1385   -11.0254     3.9693 H       
 262 H262          14.2991    -9.4422     2.1203 H       
 263 H263          15.0691   -12.2581     2.1903 H       
 264 H264          19.0375    -9.5916     0.9211 H       
 265 H265          21.9485    -9.3193     3.6504 H       
 266 H266          21.2968    -9.2528     0.2493 H       
 267 H267          22.5094    -9.1403     1.4067 H       
 268 H268          16.9286   -10.8107     1.6287 H       
 269 H269          16.6883    -9.0489     1.7092 H       
 270 H270          18.5645   -10.6725     3.4871 H       
 271 H271          18.3242    -8.9107     3.5676 H       
 272 H272           2.4971   -37.3759   -20.0474 H       
 273 H273           0.6218   -36.2915   -18.0891 H       
 274 H274           0.1720   -38.9799   -19.4598 H       
 275 H275          -0.6783   -38.4391   -17.9926 H       
 276 H276          -1.5494   -36.4704   -19.2232 H       
 277 H277          -0.6990   -37.0113   -20.6903 H       
 278 H278          -2.0080   -39.1172   -20.6727 H       
 279 H279          -2.8583   -38.5764   -19.2055 H       
 280 H280          -4.2094   -38.1241   -21.2350 H       
 281 H281          -3.7294   -36.6077   -20.4361 H       
 282 H282          -2.8790   -37.1485   -21.9033 H       
 283 H283           1.5870   -31.4487   -23.2573 H       
 284 H284           1.9796   -32.1190   -24.8588 H       
 285 H285           0.4369   -32.5343   -24.0739 H       
@<TRIPOS>BOND
   1    1  127 am
   2    1  147 1
   3    1  148 1
   4    2    7 1
   5    2    3 1
   6    2  149 1
   7    2  150 1
   8    3    5 1
   9    3    4 1
  10    3  151 1
  11    4    6 2
  12    4  137 am
  13    5  145 am
  14    5  152 1
  15    7  153 1
  16    8    9 1
  17    8   10 1
  18    8   18 1
  19    8  154 1
  20    9   11 2
  21    9  136 1
  22   10   21 1
  23   10  155 1
  24   12   13 ar
  25   12   17 ar
  26   12  156 1
  27   13   14 ar
  28   13  157 1
  29   14   15 ar
  30   14  158 1
  31   15   16 ar
  32   15  159 1
  33   16   17 ar
  34   16  160 1
  35   17   18 1
  36   18  161 1
  37   18  162 1
  38   19   20 1
  39   19   21 1
  40   19   29 1
  41   19  163 1
  42   20   22 2
  43   20   33 am
  44   21  164 1
  45   23   24 ar
  46   23   28 ar
  47   23  165 1
  48   24   25 ar
  49   24  166 1
  50   25   26 ar
  51   25  167 1
  52   26   27 ar
  53   26  168 1
  54   27   28 ar
  55   27  169 1
  56   28   29 1
  57   29  170 1
  58   29  171 1
  59   30   35 1
  60   30   31 1
  61   30  172 1
  62   30  173 1
  63   31   32 1
  64   31   33 1
  65   31  174 1
  66   32   34 2
  67   32   41 am
  68   33  175 1
  69   35   36 2
  70   35   37 1
  71   37  176 1
  72   38   39 1
  73   38  177 1
  74   38  178 1
  75   38  179 1
  76   39   40 1
  77   39   41 1
  78   39  180 1
  79   40   42 2
  80   40   45 am
  81   41  181 1
  82   43   44 1
  83   43   45 1
  84   43   53 1
  85   43  182 1
  86   44   46 2
  87   44   57 am
  88   45  183 1
  89   47   48 ar
  90   47   52 ar
  91   47  184 1
  92   48   49 ar
  93   48  185 1
  94   49   50 ar
  95   49  186 1
  96   50   51 ar
  97   50  187 1
  98   51   52 ar
  99   51  188 1
 100   52   53 1
 101   53  189 1
 102   53  190 1
 103   54   59 1
 104   54   55 1
 105   54  191 1
 106   54  192 1
 107   55   57 1
 108   55   56 1
 109   55  193 1
 110   56   58 2
 111   56   65 am
 112   57  194 1
 113   59   60 1
 114   59   61 1
 115   59  195 1
 116   60  196 1
 117   60  197 1
 118   60  198 1
 119   61  199 1
 120   61  200 1
 121   61  201 1
 122   62   67 1
 123   62   63 1
 124   62  202 1
 125   62  203 1
 126   63   65 1
 127   63   64 1
 128   63  204 1
 129   64   66 2
 130   64   74 am
 131   65  205 1
 132   67   68 1
 133   67  206 1
 134   67  207 1
 135   68   69 2
 136   68   70 am
 137   70  208 1
 138   70  209 1
 139   71   76 1
 140   71   72 1
 141   71  210 1
 142   71  211 1
 143   72   73 1
 144   72   74 1
 145   72  212 1
 146   73   75 2
 147   73   88 am
 148   74  213 1
 149   76   77 2
 150   76   80 1
 151   77   78 1
 152   77  214 1
 153   78   79 1
 154   78  215 1
 155   79   80 ar
 156   79   81 ar
 157   80   84 ar
 158   81   82 ar
 159   81  216 1
 160   82   83 ar
 161   82  217 1
 162   83   84 ar
 163   83  218 1
 164   84  219 1
 165   85   90 1
 166   85   86 1
 167   85  220 1
 168   85  221 1
 169   86   88 1
 170   86   87 1
 171   86  222 1
 172   87   89 2
 173   87   97 am
 174   88  223 1
 175   90   91 1
 176   90  224 1
 177   90  225 1
 178   91   92 1
 179   91  226 1
 180   91  227 1
 181   92   93 1
 182   92  228 1
 183   92  229 1
 184   93  230 1
 185   93  231 1
 186   94   99 1
 187   94   95 1
 188   94  232 1
 189   94  233 1
 190   95   96 1
 191   95   97 1
 192   95  234 1
 193   96   98 2
 194   96  111 am
 195   97  235 1
 196   99  100 2
 197   99  103 1
 198  100  101 1
 199  100  236 1
 200  101  102 1
 201  101  237 1
 202  102  103 ar
 203  102  104 ar
 204  103  107 ar
 205  104  105 ar
 206  104  238 1
 207  105  106 ar
 208  105  239 1
 209  106  107 ar
 210  106  240 1
 211  107  241 1
 212  108  113 1
 213  108  109 1
 214  108  242 1
 215  108  243 1
 216  109  111 1
 217  109  110 1
 218  109  244 1
 219  110  112 2
 220  110  119 am
 221  111  245 1
 222  113  114 1
 223  113  115 1
 224  113  246 1
 225  114  247 1
 226  114  248 1
 227  114  249 1
 228  115  250 1
 229  115  251 1
 230  115  252 1
 231  116  121 1
 232  116  117 1
 233  116  253 1
 234  116  254 1
 235  117  119 1
 236  117  118 1
 237  117  255 1
 238  118  120 2
 239  118  128 am
 240  119  256 1
 241  121  122 1
 242  121  257 1
 243  121  258 1
 244  122  123 2
 245  122  124 1
 246  124  259 1
 247  125  134 1
 248  125  126 1
 249  125  260 1
 250  125  261 1
 251  126  128 1
 252  126  127 1
 253  126  262 1
 254  127  129 2
 255  128  263 1
 256  130  135 1
 257  130  131 1
 258  130  264 1
 259  131  132 2
 260  131  133 1
 261  132  265 1
 262  133  266 1
 263  133  267 1
 264  134  135 1
 265  134  268 1
 266  134  269 1
 267  135  270 1
 268  135  271 1
 269  136  143 2
 270  136  138 1
 271  137  138 1
 272  137  272 1
 273  138  139 1
 274  138  273 1
 275  139  140 1
 276  139  274 1
 277  139  275 1
 278  140  141 1
 279  140  276 1
 280  140  277 1
 281  141  142 1
 282  141  278 1
 283  141  279 1
 284  142  280 1
 285  142  281 1
 286  142  282 1
 287  144  145 2
 288  145  146 1
 289  146  283 1
 290  146  284 1
 291  146  285 1

#	End of record

