#	Name: ASD01901551
#	Creating user name:	WinNT
#	Creation time:	15. 06. 2019 19:53

#	Modifying user name:	WinNT
#	Modification time:	15. 06. 2019 19:53

#	Program:	/corina/corina34_cracker 3.40 0067  02.08.2006

@<TRIPOS>MOLECULE
ASD01901551
  31   34    0    0    0
SMALL
NO_CHARGES


@<TRIPOS>ATOM
   1 C1             1.1775     1.7681     0.3264 C.3     
   2 C2             1.0005     0.2773     0.1955 C.2     
   3 N3             1.0816    -0.4122    -0.9006 N.2     
   4 O4             0.8565    -1.7795    -0.6221 O.3     
   5 C5             0.6281    -1.9344     0.6993 C.ar    
   6 C6             0.3558    -3.0417     1.4969 C.ar    
   7 F7             0.2801    -4.2714     0.9424 F       
   8 C8             0.1638    -2.8841     2.8532 C.ar    
   9 C9             0.2391    -1.6205     3.4363 C.ar    
  10 N10            0.0420    -1.4754     4.8138 N.pl3   
  11 C11           -0.4844    -0.2843     5.3233 C.2     
  12 N12           -0.9278     0.7244     4.6211 N.2     
  13 N13           -1.3777     1.7393     5.4720 N.pl3   
  14 H14           -1.7519     2.5876     5.1868 H       
  15 C15           -1.2063     1.3437     6.7722 C.ar    
  16 C16           -1.4706     1.9360     8.0066 C.ar    
  17 C17           -1.1608     1.2277     9.1509 C.ar    
  18 C18           -0.6016    -0.0390     9.0442 C.ar    
  19 N19           -0.3588    -0.5829     7.8734 N.ar    
  20 C20           -0.6433     0.0536     6.7397 C.ar    
  21 C21            0.5083    -0.5096     2.6580 C.ar    
  22 C22            0.7114    -0.6609     1.2841 C.ar    
  23 H23            2.2277     1.9945     0.5109 H       
  24 H24            0.8575     2.2543    -0.5951 H       
  25 H25            0.5755     2.1338     1.1582 H       
  26 H26           -0.0469    -3.7464     3.4684 H       
  27 H27            0.2705    -2.2012     5.4155 H       
  28 H28           -1.9058     2.9227     8.0662 H       
  29 H29           -1.3521     1.6566    10.1235 H       
  30 H30           -0.3610    -0.5883     9.9425 H       
  31 H31            0.5661     0.4692     3.1107 H       
@<TRIPOS>BOND
   1    1    2 1
   2    1   23 1
   3    1   24 1
   4    1   25 1
   5    2   22 1
   6    2    3 2
   7    3    4 1
   8    4    5 1
   9    5   22 ar
  10    5    6 ar
  11    6    7 1
  12    6    8 ar
  13    8    9 ar
  14    8   26 1
  15    9   10 1
  16    9   21 ar
  17   10   11 1
  18   10   27 1
  19   11   20 1
  20   11   12 2
  21   12   13 1
  22   13   14 1
  23   13   15 1
  24   15   20 ar
  25   15   16 ar
  26   16   17 ar
  27   16   28 1
  28   17   18 ar
  29   17   29 1
  30   18   19 ar
  31   18   30 1
  32   19   20 ar
  33   21   22 ar
  34   21   31 1

#	End of record

