#	Name: ASD01916277
#	Creating user name:	WinNT
#	Creation time:	15. 06. 2019 20:07

#	Modifying user name:	WinNT
#	Modification time:	15. 06. 2019 20:07

#	Program:	/corina/corina34_cracker 3.40 0067  02.08.2006

@<TRIPOS>MOLECULE
ASD01916277
  37   39    0    0    0
SMALL
NO_CHARGES


@<TRIPOS>ATOM
   1 C1            -0.0548     1.3252    -0.2458 C.ar    
   2 C2             0.0309    -0.0536    -0.1706 C.ar    
   3 C3             1.2251    -0.6575     0.1719 C.ar    
   4 C4             2.3489     0.1245     0.4430 C.ar    
   5 C5             2.2604     1.5150     0.3667 C.ar    
   6 C6             1.0585     2.1105     0.0224 C.ar    
   7 O7             0.9687     3.4644    -0.0534 O.3     
   8 C8             1.4644     4.0757    -1.1614 C.ar    
   9 C9             1.3989     5.4580    -1.3033 C.ar    
  10 N10            1.8930     6.0153    -2.3965 N.ar    
  11 C11            2.4411     5.2792    -3.3424 C.ar    
  12 N12            2.5215     3.9674    -3.2452 N.ar    
  13 C13            2.0556     3.3357    -2.1804 C.ar    
  14 Cl14          -1.3663    -1.0273    -0.5070 Cl      
  15 C15            3.6285    -0.5181     0.8103 C.2     
  16 N16            3.7113    -1.8613     0.8838 N.am    
  17 O17            4.6060     0.1649     1.0460 O.2     
  18 C18            4.9413    -2.4717     1.1258 C.ar    
  19 C19            5.0416    -3.8574     1.0847 C.ar    
  20 C20            7.3572    -3.6340     1.6029 C.ar    
  21 C21            7.1851    -2.2617     1.6219 C.ar    
  22 N22            6.0028    -1.7256     1.3872 N.ar    
  23 C23            6.2679    -4.4516     1.3266 C.ar    
  24 F24            8.5722    -4.1734     1.8441 F       
  25 C25            8.3626    -1.3679     1.9148 C.3     
  26 F26            7.9165    -0.1993     2.5413 F       
  27 F27            9.2572    -2.0364     2.7574 F       
  28 H28           -0.9897     1.7922    -0.5183 H       
  29 H29            1.2890    -1.7340     0.2302 H       
  30 H30            3.1267     2.1250     0.5758 H       
  31 H31            0.9508     6.0673    -0.5323 H       
  32 H32            2.8353     5.7650    -4.2228 H       
  33 H33            2.1249     2.2604    -2.1073 H       
  34 H34            2.9152    -2.4034     0.7684 H       
  35 H35            4.1739    -4.4626     0.8671 H       
  36 H36            6.3757    -5.5259     1.3017 H       
  37 H37            8.8648    -1.1112     0.9821 H       
@<TRIPOS>BOND
   1    1    2 ar
   2    1    6 ar
   3    1   28 1
   4    2    3 ar
   5    2   14 1
   6    3    4 ar
   7    3   29 1
   8    4    5 ar
   9    4   15 1
  10    5    6 ar
  11    5   30 1
  12    6    7 1
  13    7    8 1
  14    8    9 ar
  15    8   13 ar
  16    9   10 ar
  17    9   31 1
  18   10   11 ar
  19   11   12 ar
  20   11   32 1
  21   12   13 ar
  22   13   33 1
  23   15   16 am
  24   15   17 2
  25   16   18 1
  26   16   34 1
  27   18   19 ar
  28   18   22 ar
  29   19   23 ar
  30   19   35 1
  31   20   21 ar
  32   20   24 1
  33   20   23 ar
  34   21   22 ar
  35   21   25 1
  36   23   36 1
  37   25   26 1
  38   25   27 1
  39   25   37 1

#	End of record

