#	Name: ASD01320047
#	Creating user name:	WinNT
#	Creation time:	15. 06. 2019 19:15

#	Modifying user name:	WinNT
#	Modification time:	15. 06. 2019 19:15

#	Program:	/corina/corina34_cracker 3.40 0067  02.08.2006

@<TRIPOS>MOLECULE
ASD01320047
  52   54    0    0    0
SMALL
NO_CHARGES


@<TRIPOS>ATOM
   1 P1            -0.0180     1.4758     0.0102 P.3     
   2 O2             0.0021    -0.0041     0.0020 O.2     
   3 O3             1.4924     2.0330    -0.0013 O.3     
   4 O4            -0.7967     2.0091    -1.2942 O.3     
   5 O5            -0.7716     1.9950     1.3348 O.3     
   6 C6            -0.3850     1.6043     2.6538 C.3     
   7 C7            -1.3055     2.2756     3.6750 C.3     
   8 C8            -0.9727     1.7616     5.0771 C.3     
   9 C9            -1.8932     2.4330     6.0983 C.3     
  10 C10           -1.5603     1.9190     7.5004 C.3     
  11 O11           -1.7033     3.8486     6.0524 O.3     
  12 O12           -1.1625     0.3460     5.1230 O.3     
  13 O13           -1.1157     3.6912     3.6291 O.3     
  14 N14           -1.1727     4.3552     8.8698 N.2     
  15 C15           -0.9465     5.5090     9.4929 C.2     
  16 N16           -1.7852     6.0593    10.3822 N.am    
  17 C17           -2.9513     5.4583    10.7140 C.2     
  18 C18           -3.2592     4.1707    10.0527 C.2     
  19 N19           -4.3585     3.5052    10.2993 N.2     
  20 C20           -4.6067     2.3421     9.6826 C.ar    
  21 C21           -3.6893     1.8026     8.7525 C.ar    
  22 N22           -2.5180     2.4698     8.4625 N.pl3   
  23 C23           -2.2713     3.6530     9.0917 C.2     
  24 C24           -3.9753     0.5914     8.1283 C.ar    
  25 C25           -5.1470    -0.0710     8.4205 C.ar    
  26 C26           -6.0511     0.4586     9.3352 C.ar    
  27 C27           -5.7960     1.6408     9.9619 C.ar    
  28 O28           -3.7134     5.9548    11.5207 O.2     
  29 O29            0.0874     6.1021     9.2397 O.2     
  30 C30           -5.4524    -1.3817     7.7425 C.3     
  31 C31           -7.3268    -0.2846     9.6374 C.3     
  32 H32            1.5557     2.9980     0.0033 H       
  33 H33           -0.3973     1.7338    -2.1307 H       
  34 H34           -0.4642     0.5214     2.7499 H       
  35 H35            0.6450     1.9108     2.8364 H       
  36 H36           -2.3432     2.0404     3.4386 H       
  37 H37            0.0651     1.9969     5.3135 H       
  38 H38           -2.9309     2.1977     5.8619 H       
  39 H39           -1.6191     0.8306     7.5118 H       
  40 H40           -0.5520     2.2313     7.7720 H       
  41 H41           -0.8005     4.1311     6.2530 H       
  42 H42           -2.0653     0.0636     4.9224 H       
  43 H43           -0.2128     3.9737     3.8297 H       
  44 H44           -1.5515     6.9048    10.7963 H       
  45 H45           -3.2800     0.1723     7.4161 H       
  46 H46           -6.5054     2.0406    10.6713 H       
  47 H47           -5.0518    -2.2014     8.3389 H       
  48 H48           -6.5319    -1.4973     7.6447 H       
  49 H49           -4.9946    -1.3945     6.7534 H       
  50 H50           -7.1606    -0.9678    10.4703 H       
  51 H51           -8.1083     0.4276     9.9020 H       
  52 H52           -7.6341    -0.8513     8.7584 H       
@<TRIPOS>BOND
   1    1    2 2
   2    1    3 1
   3    1    4 1
   4    1    5 1
   5    3   32 1
   6    4   33 1
   7    5    6 1
   8    6    7 1
   9    6   34 1
  10    6   35 1
  11    7    8 1
  12    7   13 1
  13    7   36 1
  14    8    9 1
  15    8   12 1
  16    8   37 1
  17    9   10 1
  18    9   11 1
  19    9   38 1
  20   10   22 1
  21   10   39 1
  22   10   40 1
  23   11   41 1
  24   12   42 1
  25   13   43 1
  26   14   15 1
  27   14   23 2
  28   15   16 am
  29   15   29 2
  30   16   17 am
  31   16   44 1
  32   17   18 1
  33   17   28 2
  34   18   19 2
  35   18   23 1
  36   19   20 1
  37   20   21 ar
  38   20   27 ar
  39   21   22 1
  40   21   24 ar
  41   22   23 1
  42   24   25 ar
  43   24   45 1
  44   25   26 ar
  45   25   30 1
  46   26   27 ar
  47   26   31 1
  48   27   46 1
  49   30   47 1
  50   30   48 1
  51   30   49 1
  52   31   50 1
  53   31   51 1
  54   31   52 1

#	End of record

