#	Name: ASD01028301
#	Creating user name:	WinNT
#	Creation time:	15. 06. 2019 18:56

#	Modifying user name:	WinNT
#	Modification time:	15. 06. 2019 18:56

#	Program:	/corina/corina34_cracker 3.40 0067  02.08.2006

@<TRIPOS>MOLECULE
ASD01028301
  51   55    0    0    0
SMALL
NO_CHARGES


@<TRIPOS>ATOM
   1 C1            -0.0184     1.5028     0.0103 C.3     
   2 C2             0.0061    -0.0039    -0.0062 C.2     
   3 N3            -1.0661    -0.8199     0.0924 N.pl3   
   4 C4            -0.5738    -2.1021     0.0311 C.2     
   5 N5             0.7390    -2.0022    -0.0984 N.2     
   6 N6             1.0701    -0.7585    -0.1246 N.2     
   7 N7            -2.4384    -0.6027     0.2314 N.2     
   8 C8            -3.2700    -1.6183     0.3045 C.2     
   9 C9            -2.7956    -2.9459     0.2450 C.2     
  10 C10           -1.4653    -3.1889     0.1092 C.2     
  11 C11           -4.7245    -1.3656     0.4520 C.ar    
  12 C12            1.3940     2.0282     0.0021 C.ar    
  13 C13            1.8512     2.7538    -1.0958 C.ar    
  14 C14            3.1209     3.2426    -1.1355 C.ar    
  15 C15            3.9901     3.0155    -0.0544 C.ar    
  16 C16            3.5227     2.2775     1.0618 C.ar    
  17 C17            2.2049     1.7924     1.0703 C.ar    
  18 N18            5.2423     3.4837    -0.0673 N.ar    
  19 C19            6.0591     3.2763     0.9360 C.ar    
  20 C20            5.6637     2.5564     2.0679 C.ar    
  21 C21            4.3928     2.0504     2.1438 C.ar    
  22 C22           -0.7600     2.0144    -1.2263 C.3     
  23 C23           -0.7355     1.9874     1.2720 C.3     
  24 C24           -5.2047    -0.0588     0.5124 C.ar    
  25 C25           -6.5588     0.1705     0.6491 C.ar    
  26 C26           -7.4387    -0.8940     0.7261 C.ar    
  27 C27           -6.9677    -2.1932     0.6667 C.ar    
  28 C28           -5.6161    -2.4341     0.5248 C.ar    
  29 O29            6.5378     2.3592     3.0897 O.3     
  30 C30            7.8456     2.9155     2.9412 C.3     
  31 H31           -3.4907    -3.7702     0.3071 H       
  32 H32           -1.0965    -4.2029     0.0631 H       
  33 H33            1.1875     2.9311    -1.9291 H       
  34 H34            3.4595     3.8025    -1.9947 H       
  35 H35            1.8389     1.2293     1.9161 H       
  36 H36            7.0632     3.6710     0.8875 H       
  37 H37            4.0683     1.4921     3.0095 H       
  38 H38           -1.7816     1.6343    -1.2203 H       
  39 H39           -0.7777     3.1042    -1.2143 H       
  40 H40           -0.2491     1.6691    -2.1251 H       
  41 H41           -0.2071     1.6229     2.1529 H       
  42 H42           -0.7532     3.0772     1.2839 H       
  43 H43           -1.7571     1.6073     1.2779 H       
  44 H44           -4.5185     0.7730     0.4526 H       
  45 H45           -6.9320     1.1828     0.6963 H       
  46 H46           -8.4975    -0.7100     0.8334 H       
  47 H47           -7.6591    -3.0206     0.7277 H       
  48 H48           -5.2494    -3.4489     0.4785 H       
  49 H49            8.3242     2.4885     2.0599 H       
  50 H50            7.7696     3.9967     2.8254 H       
  51 H51            8.4408     2.6858     3.8250 H       
@<TRIPOS>BOND
   1    1    2 1
   2    1   12 1
   3    1   22 1
   4    1   23 1
   5    2    3 1
   6    2    6 2
   7    3    4 1
   8    3    7 1
   9    4    5 2
  10    4   10 1
  11    5    6 1
  12    7    8 2
  13    8    9 1
  14    8   11 1
  15    9   10 2
  16    9   31 1
  17   10   32 1
  18   11   24 ar
  19   11   28 ar
  20   12   13 ar
  21   12   17 ar
  22   13   14 ar
  23   13   33 1
  24   14   15 ar
  25   14   34 1
  26   15   16 ar
  27   15   18 ar
  28   16   17 ar
  29   16   21 ar
  30   17   35 1
  31   18   19 ar
  32   19   20 ar
  33   19   36 1
  34   20   21 ar
  35   20   29 1
  36   21   37 1
  37   22   38 1
  38   22   39 1
  39   22   40 1
  40   23   41 1
  41   23   42 1
  42   23   43 1
  43   24   25 ar
  44   24   44 1
  45   25   26 ar
  46   25   45 1
  47   26   27 ar
  48   26   46 1
  49   27   28 ar
  50   27   47 1
  51   28   48 1
  52   29   30 1
  53   30   49 1
  54   30   50 1
  55   30   51 1

#	End of record

