#	Name: ASD03092953
#	Creating user name:	WinNT
#	Creation time:	15. 06. 2019 20:33

#	Modifying user name:	WinNT
#	Modification time:	15. 06. 2019 20:33

#	Program:	/corina/corina34_cracker 3.40 0067  02.08.2006

@<TRIPOS>MOLECULE
ASD03092953
  54   57    0    0    0
SMALL
NO_CHARGES


@<TRIPOS>ATOM
   1 C1            -0.0173     1.4248     0.0099 C.3     
   2 O2             0.0021    -0.0041     0.0020 O.3     
   3 C3            -1.2005    -0.6376     0.0101 C.ar    
   4 C4            -2.3744     0.1011     0.0195 C.ar    
   5 C5            -3.5958    -0.5447     0.0278 C.ar    
   6 C6            -3.6484    -1.9271     0.0266 C.ar    
   7 Cl7           -5.1843    -2.7362     0.0370 Cl      
   8 C8            -2.4782    -2.6658     0.0168 C.ar    
   9 C9            -1.2553    -2.0239     0.0032 C.ar    
  10 C10            0.0186    -2.8288    -0.0134 C.3     
  11 C11            0.5307    -3.0026     1.4179 C.3     
  12 C12            1.8241    -3.8198     1.4011 C.3     
  13 H13            2.4301    -3.7225     0.5004 H       
  14 C14            1.8090    -5.1820     2.0995 C.3     
  15 H15            0.8776    -5.4959     2.5709 H       
  16 C16            2.6331    -6.2863     1.4893 C.ar    
  17 C17            3.5059    -6.0063     0.4545 C.ar    
  18 C18            4.2619    -7.0193    -0.1052 C.ar    
  19 C19            4.1455    -8.3121     0.3701 C.ar    
  20 C20            3.2733    -8.5919     1.4055 C.ar    
  21 C21            2.5205    -7.5782     1.9681 C.ar    
  22 S22            5.1082    -9.6034    -0.3441 S.o2    
  23 N23            6.5288    -9.6819     0.5033 N.am    
  24 O24            4.4149   -10.8150    -0.0781 O.2     
  25 O25            5.4465    -9.1734    -1.6555 O.2     
  26 C26            2.5563    -4.0075     2.7263 C.3     
  27 C27            4.0938    -3.9927     2.7856 C.3     
  28 C28            4.4221    -2.8278     3.7538 C.3     
  29 C29            3.3034    -2.9411     4.8196 C.3     
  30 C30            2.0495    -3.3404     4.0123 C.3     
  31 H31            1.0053     1.8021     0.0021 H       
  32 H32           -0.5445     1.7859    -0.8732 H       
  33 H33           -0.5275     1.7763     0.9067 H       
  34 H34           -2.3337     1.1803     0.0208 H       
  35 H35           -4.5101     0.0301     0.0355 H       
  36 H36           -2.5213    -3.7450     0.0155 H       
  37 H37           -0.1759    -3.8079    -0.4511 H       
  38 H38            0.7698    -2.3080    -0.6072 H       
  39 H39            0.7252    -2.0235     1.8556 H       
  40 H40           -0.2205    -3.5234     2.0118 H       
  41 H41            3.5969    -4.9963     0.0832 H       
  42 H42            4.9433    -6.8007    -0.9141 H       
  43 H43            3.1821    -9.6020     1.7767 H       
  44 H44            1.8419    -7.7961     2.7796 H       
  45 H45            6.6876    -9.0727     1.2412 H       
  46 H46            7.2021   -10.3371     0.2618 H       
  47 H47            4.4699    -4.9360     3.1816 H       
  48 H48            4.5122    -3.7979     1.7981 H       
  49 H49            5.4033    -2.9678     4.2076 H       
  50 H50            4.3677    -1.8695     3.2373 H       
  51 H51            3.5487    -3.7126     5.5495 H       
  52 H52            3.1492    -1.9820     5.3141 H       
  53 H53            1.4639    -2.4540     3.7681 H       
  54 H54            1.4442    -4.0432     4.5848 H       
@<TRIPOS>BOND
   1    1    2 1
   2    1   31 1
   3    1   32 1
   4    1   33 1
   5    2    3 1
   6    3    9 ar
   7    3    4 ar
   8    4    5 ar
   9    4   34 1
  10    5    6 ar
  11    5   35 1
  12    6    7 1
  13    6    8 ar
  14    8    9 ar
  15    8   36 1
  16    9   10 1
  17   10   11 1
  18   10   37 1
  19   10   38 1
  20   11   12 1
  21   11   39 1
  22   11   40 1
  23   12   13 1
  24   12   26 1
  25   12   14 1
  26   14   15 1
  27   14   16 1
  28   14   26 1
  29   16   21 ar
  30   16   17 ar
  31   17   18 ar
  32   17   41 1
  33   18   19 ar
  34   18   42 1
  35   19   20 ar
  36   19   22 1
  37   20   21 ar
  38   20   43 1
  39   21   44 1
  40   22   23 am
  41   22   24 2
  42   22   25 2
  43   23   45 1
  44   23   46 1
  45   26   30 1
  46   26   27 1
  47   27   28 1
  48   27   47 1
  49   27   48 1
  50   28   29 1
  51   28   49 1
  52   28   50 1
  53   29   30 1
  54   29   51 1
  55   29   52 1
  56   30   53 1
  57   30   54 1

#	End of record

