#	Name: ASD04882310
#	Creating user name:	WinNT
#	Creation time:	15. 06. 2019 20:54

#	Modifying user name:	WinNT
#	Modification time:	15. 06. 2019 20:54

#	Program:	/corina/corina34_cracker 3.40 0067  02.08.2006

@<TRIPOS>MOLECULE
ASD04882310
  70   74    0    0    0
SMALL
NO_CHARGES


@<TRIPOS>ATOM
   1 N1            -0.0169     1.3967     0.0097 N.am    
   2 C2             0.1106     0.0023    -0.0343 C.ar    
   3 C3            -1.0263    -0.8069     0.0453 C.ar    
   4 C4            -0.9012    -2.1907     0.0018 C.ar    
   5 C5             0.3426    -2.7694    -0.1194 C.ar    
   6 C6             1.4837    -1.9661    -0.1990 C.ar    
   7 C7             1.3602    -0.5743    -0.1621 C.ar    
   8 N8            -2.2858    -0.2261     0.1688 N.3     
   9 C9            -3.1516    -0.6014    -0.9578 C.3     
  10 C10           -2.9084    -0.5861     1.4504 C.3     
  11 C11           -4.2526     0.1339     1.5815 C.3     
  12 N12           -5.1184    -0.2414     0.4549 N.3     
  13 C13           -4.4958     0.1186    -0.8266 C.3     
  14 C14            2.8160    -2.5862    -0.3283 C.2     
  15 O15            3.8082    -1.8866    -0.3975 O.2     
  16 C16            0.9205     2.1775    -0.5630 C.2     
  17 C17            0.7435     3.6328    -0.5941 C.2     
  18 O18            1.9141     1.6747    -1.0544 O.2     
  19 N19            2.9336    -3.9282    -0.3696 N.am    
  20 C20           -6.3818     0.3411     0.5788 C.ar    
  21 C21           -6.5095     1.7234     0.6230 C.ar    
  22 C22           -7.5140    -0.4607     0.6524 C.ar    
  23 C23           -8.7615     0.1185     0.7749 C.ar    
  24 C24           -8.8847     1.4952     0.8239 C.ar    
  25 C25           -7.7604     2.2963     0.7456 C.ar    
  26 C26            4.2566    -4.5441    -0.4980 C.3     
  27 C27            4.1103    -6.0669    -0.5208 C.3     
  28 N28            5.4334    -6.6827    -0.6492 N.am    
  29 C29            1.6111     4.5352    -1.1398 C.2     
  30 C30            1.0461     5.8056    -0.9468 C.2     
  31 C31           -0.1266     5.6253    -0.3001 C.2     
  32 O32           -0.3079     4.3144    -0.0938 O.3     
  33 C33           -7.3808    -1.9608     0.5981 C.3     
  34 C34            6.1843    -7.0133     0.4087 C.2     
  35 C35            7.4824    -7.6235    -0.0734 C.3     
  36 C36            7.3500    -7.5877    -1.6096 C.3     
  37 C37            5.9886    -6.9663    -1.8339 C.2     
  38 O38            5.4839    -6.7526    -2.9151 O.2     
  39 O39            5.8737    -6.8495     1.5690 O.2     
  40 H40           -0.7819     1.8002     0.4489 H       
  41 H41           -1.7815    -2.8134     0.0635 H       
  42 H42            0.4365    -3.8448    -0.1525 H       
  43 H43            2.2401     0.0489    -0.2235 H       
  44 H44           -2.6747    -0.3133    -1.8946 H       
  45 H45           -3.3139    -1.6792    -0.9484 H       
  46 H46           -3.0679    -1.6637     1.4872 H       
  47 H47           -2.2542    -0.2868     2.2692 H       
  48 H48           -4.7296    -0.1542     2.5184 H       
  49 H49           -4.0903     1.2117     1.5721 H       
  50 H50           -4.3363     1.1962    -0.8634 H       
  51 H51           -5.1500    -0.1807    -1.6455 H       
  52 H52            2.1421    -4.4863    -0.3144 H       
  53 H53           -5.6318     2.3497     0.5619 H       
  54 H54           -9.6420    -0.5042     0.8322 H       
  55 H55           -9.8616     1.9457     0.9190 H       
  56 H56           -7.8601     3.3710     0.7842 H       
  57 H57            4.7246    -4.2101    -1.4240 H       
  58 H58            4.8773    -4.2513     0.3489 H       
  59 H59            3.6424    -6.4009     0.4053 H       
  60 H60            3.4896    -6.3596    -1.3677 H       
  61 H61            2.5502     4.3143    -1.6251 H       
  62 H62            1.4692     6.7496    -1.2570 H       
  63 H63           -0.8075     6.4089    -0.0023 H       
  64 H64           -7.2614    -2.3518     1.6086 H       
  65 H65           -8.2756    -2.3889     0.1463 H       
  66 H66           -6.5090    -2.2268     0.0003 H       
  67 H67            8.3324    -7.0239     0.2524 H       
  68 H68            7.5780    -8.6503     0.2796 H       
  69 H69            8.1341    -6.9704    -2.0479 H       
  70 H70            7.3798    -8.5967    -2.0208 H       
@<TRIPOS>BOND
   1    1    2 1
   2    1   16 am
   3    1   40 1
   4    2    3 ar
   5    2    7 ar
   6    3    4 ar
   7    3    8 1
   8    4    5 ar
   9    4   41 1
  10    5    6 ar
  11    5   42 1
  12    6    7 ar
  13    6   14 1
  14    7   43 1
  15    8    9 1
  16    8   10 1
  17    9   13 1
  18    9   44 1
  19    9   45 1
  20   10   11 1
  21   10   46 1
  22   10   47 1
  23   11   12 1
  24   11   48 1
  25   11   49 1
  26   12   13 1
  27   12   20 1
  28   13   50 1
  29   13   51 1
  30   14   15 2
  31   14   19 am
  32   16   18 2
  33   16   17 1
  34   17   29 2
  35   17   32 1
  36   19   26 1
  37   19   52 1
  38   20   21 ar
  39   20   22 ar
  40   21   25 ar
  41   21   53 1
  42   22   23 ar
  43   22   33 1
  44   23   24 ar
  45   23   54 1
  46   24   25 ar
  47   24   55 1
  48   25   56 1
  49   26   27 1
  50   26   57 1
  51   26   58 1
  52   27   28 1
  53   27   59 1
  54   27   60 1
  55   28   34 am
  56   28   37 am
  57   29   30 1
  58   29   61 1
  59   30   31 2
  60   30   62 1
  61   31   32 1
  62   31   63 1
  63   33   64 1
  64   33   65 1
  65   33   66 1
  66   34   35 1
  67   34   39 2
  68   35   36 1
  69   35   67 1
  70   35   68 1
  71   36   37 1
  72   36   69 1
  73   36   70 1
  74   37   38 2

#	End of record

