#	Name: ASD03540194
#	Creating user name:	WinNT
#	Creation time:	15. 06. 2019 20:42

#	Modifying user name:	WinNT
#	Modification time:	15. 06. 2019 20:42

#	Program:	/corina/corina34_cracker 3.40 0067  02.08.2006

@<TRIPOS>MOLECULE
ASD03540194
  74   78    0    0    0
SMALL
NO_CHARGES


@<TRIPOS>ATOM
   1 C1            -0.1308     1.6457    -0.0847 C.3     
   2 C2             1.3576     1.5239    -0.4175 C.3     
   3 C3             0.4862     2.5335    -1.1673 C.3     
   4 C4            -1.0379     0.5293    -0.5338 C.2     
   5 O5            -0.5818    -0.4158    -1.1328 O.2     
   6 O6            -2.3525     0.5847    -0.2684 O.3     
   7 C7            -0.5003     2.2977     1.2227 C.ar    
   8 C8            -1.8299     2.4346     1.5754 C.ar    
   9 C9            -2.1689     3.0327     2.7746 C.ar    
  10 C10           -1.1782     3.4935     3.6215 C.ar    
  11 C11            0.1514     3.3558     3.2693 C.ar    
  12 C12            0.4905     2.7538     2.0720 C.ar    
  13 C13           -1.5478     4.1465     4.9285 C.3     
  14 C14           -3.8262     4.2148     5.7603 C.2     
  15 N15           -4.9374     3.6658     6.2713 N.am    
  16 C16           -5.0112     2.3112     6.5435 C.2     
  17 C17           -3.9081     1.5080     6.2799 C.2     
  18 C18           -2.7054     2.1616     5.7166 C.2     
  19 N19           -2.7314     3.4874     5.4861 N.am    
  20 C20           -4.1209     0.1657     6.6018 C.2     
  21 C21           -5.3402    -0.0966     7.1014 C.2     
  22 S22           -6.2887     1.3770     7.1863 S.3     
  23 O23           -1.7088     1.5102     5.4652 O.2     
  24 O24           -3.8109     5.4091     5.5332 O.2     
  25 C25           -0.3818     4.0174     5.9107 C.3     
  26 C26           -5.8096    -1.4210     7.5152 C.2     
  27 N27           -7.0563    -1.5715     8.0047 N.am    
  28 O28           -5.0738    -2.3856     7.4170 O.2     
  29 C29           -7.5258    -2.8960     8.4186 C.3     
  30 C30           -8.9414    -2.7917     8.9247 C.ar    
  31 C31          -10.0001    -2.9442     8.0501 C.ar    
  32 C32          -11.3029    -2.8481     8.5165 C.ar    
  33 C33          -11.5394    -2.5989     9.8608 C.ar    
  34 C34          -10.4776    -2.4472    10.7311 C.ar    
  35 C35           -9.1798    -2.5491    10.2646 C.ar    
  36 O36          -12.3459    -2.9973     7.6581 O.3     
  37 C37          -13.6600    -2.8857     8.2083 C.3     
  38 C38           -3.1658    -0.5257    -0.7310 C.3     
  39 C39           -2.6709    -1.8229    -0.0881 C.3     
  40 C40           -4.6253    -0.2868    -0.3392 C.3     
  41 C41           -3.0580    -0.6374    -2.2531 C.3     
  42 H42            2.0695     1.9153     0.3091 H       
  43 H43            1.6807     0.6362    -0.9614 H       
  44 H44            0.2360     2.3101    -2.2044 H       
  45 H45            0.6248     3.5892    -0.9339 H       
  46 H46           -2.6039     2.0746     0.9137 H       
  47 H47           -3.2077     3.1403     3.0498 H       
  48 H48            0.9253     3.7161     3.9308 H       
  49 H49            1.5294     2.6429     1.7985 H       
  50 H50           -1.7651     5.2011     4.7591 H       
  51 H51           -5.7052     4.2297     6.4543 H       
  52 H52           -3.3692    -0.5969     6.4608 H       
  53 H53           -0.1645     2.9628     6.0801 H       
  54 H54            0.4988     4.5077     5.4958 H       
  55 H55           -0.6491     4.4896     6.8560 H       
  56 H56           -7.6427    -0.8027     8.0830 H       
  57 H57           -7.4935    -3.5755     7.5669 H       
  58 H58           -6.8834    -3.2776     9.2123 H       
  59 H59           -9.8134    -3.1378     7.0041 H       
  60 H60          -12.5529    -2.5232    10.2263 H       
  61 H61          -10.6612    -2.2528    11.7775 H       
  62 H62           -8.3510    -2.4349    10.9476 H       
  63 H63          -13.7993    -3.6489     8.9740 H       
  64 H64          -13.7852    -1.8982     8.6526 H       
  65 H65          -14.3978    -3.0248     7.4181 H       
  66 H66           -2.7477    -1.7433     0.9963 H       
  67 H67           -3.2814    -2.6564    -0.4353 H       
  68 H68           -1.6311    -1.9931    -0.3672 H       
  69 H69           -4.9779     0.6374    -0.7972 H       
  70 H70           -5.2359    -1.1203    -0.6864 H       
  71 H71           -4.7021    -0.2072     0.7452 H       
  72 H72           -2.0182    -0.8076    -2.5322 H       
  73 H73           -3.6686    -1.4710    -2.6003 H       
  74 H74           -3.4106     0.2867    -2.7111 H       
@<TRIPOS>BOND
   1    1    2 1
   2    1    3 1
   3    1    4 1
   4    1    7 1
   5    2    3 1
   6    2   42 1
   7    2   43 1
   8    3   44 1
   9    3   45 1
  10    4    5 2
  11    4    6 1
  12    6   38 1
  13    7    8 ar
  14    7   12 ar
  15    8    9 ar
  16    8   46 1
  17    9   10 ar
  18    9   47 1
  19   10   11 ar
  20   10   13 1
  21   11   12 ar
  22   11   48 1
  23   12   49 1
  24   13   19 1
  25   13   25 1
  26   13   50 1
  27   14   15 am
  28   14   19 am
  29   14   24 2
  30   15   16 1
  31   15   51 1
  32   16   17 2
  33   16   22 1
  34   17   18 1
  35   17   20 1
  36   18   19 am
  37   18   23 2
  38   20   21 2
  39   20   52 1
  40   21   22 1
  41   21   26 1
  42   25   53 1
  43   25   54 1
  44   25   55 1
  45   26   27 am
  46   26   28 2
  47   27   29 1
  48   27   56 1
  49   29   30 1
  50   29   57 1
  51   29   58 1
  52   30   31 ar
  53   30   35 ar
  54   31   32 ar
  55   31   59 1
  56   32   33 ar
  57   32   36 1
  58   33   34 ar
  59   33   60 1
  60   34   35 ar
  61   34   61 1
  62   35   62 1
  63   36   37 1
  64   37   63 1
  65   37   64 1
  66   37   65 1
  67   38   39 1
  68   38   41 1
  69   38   40 1
  70   39   66 1
  71   39   67 1
  72   39   68 1
  73   40   69 1
  74   40   70 1
  75   40   71 1
  76   41   72 1
  77   41   73 1
  78   41   74 1

#	End of record

