#	Name: ASD01140201
#	Creating user name:	WinNT
#	Creation time:	15. 06. 2019 19:00

#	Modifying user name:	WinNT
#	Modification time:	15. 06. 2019 19:00

#	Program:	/corina/corina34_cracker 3.40 0067  02.08.2006

@<TRIPOS>MOLECULE
ASD01140201
  42   45    0    0    0
SMALL
NO_CHARGES


@<TRIPOS>ATOM
   1 C1             0.2314     1.7409     0.4600 C.ar    
   2 C2             0.1137     0.3486     0.4588 C.ar    
   3 C3             1.2452    -0.4431     0.3075 C.ar    
   4 C4             2.5078     0.1447     0.1555 C.ar    
   5 C5             2.6064     1.5383     0.1352 C.ar    
   6 C6             1.4683     2.3233     0.2992 C.ar    
   7 C7             3.6700    -0.7455     0.0565 C.2     
   8 N8             4.6883    -0.6302    -0.7212 N.2     
   9 C9             4.8029     0.4697    -1.6859 C.3     
  10 C10            4.8107     1.7611    -0.9095 C.2     
  11 N11            3.8253     2.1873    -0.0805 N.pl3   
  12 C12            4.2312     3.3648     0.4673 C.2     
  13 C13            5.7859     2.7092    -0.8943 C.2     
  14 N14            5.3944     3.6803    -0.0279 N.2     
  15 C15            3.6712    -1.9183     0.9616 C.ar    
  16 C16            4.3804    -3.0686     0.6163 C.ar    
  17 C17            2.9677    -1.8746     2.1652 C.ar    
  18 C18            2.9726    -2.9702     3.0040 C.ar    
  19 C19            3.6733    -4.1103     2.6532 C.ar    
  20 C20            4.3776    -4.1577     1.4634 C.ar    
  21 C21           -1.1724    -0.2619     0.6138 C.1     
  22 C22           -2.2268    -0.7623     0.7409 C.1     
  23 C23            7.0356     2.6874    -1.6741 C.2     
  24 O24            7.2713     1.7555    -2.4191 O.2     
  25 N25            7.9177     3.7002    -1.5618 N.am    
  26 C26            9.1605     3.6786    -2.3372 C.3     
  27 H27           -0.6461     2.3584     0.5824 H       
  28 H28            1.1510    -1.5190     0.3074 H       
  29 H29            1.5567     3.3996     0.3003 H       
  30 H30            5.7308     0.3718    -2.2493 H       
  31 H31            3.9524     0.4535    -2.3674 H       
  32 H32            3.6793     3.9435     1.1932 H       
  33 H33            4.9303    -3.1068    -0.3125 H       
  34 H34            2.4207    -0.9849     2.4402 H       
  35 H35            2.4286    -2.9374     3.9364 H       
  36 H36            3.6744    -4.9652     3.3132 H       
  37 H37            4.9224    -5.0507     1.1948 H       
  38 H38           -3.1698    -1.2099     0.8546 H       
  39 H39            7.7297     4.4435    -0.9676 H       
  40 H40            8.9245     3.6516    -3.4011 H       
  41 H41            9.7420     4.5737    -2.1167 H       
  42 H42            9.7395     2.7943    -2.0709 H       
@<TRIPOS>BOND
   1    1    2 ar
   2    1    6 ar
   3    1   27 1
   4    2    3 ar
   5    2   21 1
   6    3    4 ar
   7    3   28 1
   8    4    5 ar
   9    4    7 1
  10    5    6 ar
  11    5   11 1
  12    6   29 1
  13    7    8 2
  14    7   15 1
  15    8    9 1
  16    9   10 1
  17    9   30 1
  18    9   31 1
  19   10   11 1
  20   10   13 2
  21   11   12 1
  22   12   14 2
  23   12   32 1
  24   13   14 1
  25   13   23 1
  26   15   16 ar
  27   15   17 ar
  28   16   20 ar
  29   16   33 1
  30   17   18 ar
  31   17   34 1
  32   18   19 ar
  33   18   35 1
  34   19   20 ar
  35   19   36 1
  36   20   37 1
  37   21   22 3
  38   22   38 1
  39   23   24 2
  40   23   25 am
  41   25   26 1
  42   25   39 1
  43   26   40 1
  44   26   41 1
  45   26   42 1

#	End of record

