#	Name: ASD02039449
#	Creating user name:	WinNT
#	Creation time:	15. 06. 2019 20:18

#	Modifying user name:	WinNT
#	Modification time:	15. 06. 2019 20:18

#	Program:	/corina/corina34_cracker 3.40 0067  02.08.2006

@<TRIPOS>MOLECULE
ASD02039449
  52   56    0    0    0
SMALL
NO_CHARGES


@<TRIPOS>ATOM
   1 C1             0.1322     1.1907     0.0648 C.ar    
   2 C2             0.4137    -0.1570     0.1965 C.ar    
   3 C3             1.2575     2.1913     0.0057 C.3     
   4 N4             1.7446     2.2975    -1.3719 N.am    
   5 C5             1.2832     3.2754    -2.1764 C.2     
   6 C6             0.2178     4.1766    -1.7039 C.2     
   7 C7            -0.4140     5.1347    -2.4414 C.2     
   8 N8            -0.3183     4.2009    -0.4569 N.2     
   9 C9            -1.2328     5.1261    -0.4098 C.2     
  10 N10           -1.3181     5.7260    -1.6256 N.pl3   
  11 O11            1.7464     3.4140    -3.2924 O.2     
  12 C12           -2.2253     6.8175    -1.9886 C.3     
  13 C13            2.7333     1.3406    -1.8750 C.3     
  14 C14           -0.6133    -1.0817     0.2506 C.ar    
  15 C15           -2.2166     0.6956     0.0306 C.ar    
  16 C16           -1.1769     1.6211    -0.0183 C.ar    
  17 C17           -3.6256     1.1525    -0.0587 C.2     
  18 C18           -4.7278     0.3530    -0.0179 C.2     
  19 C19           -1.9282    -0.6625     0.1737 C.ar    
  20 C20            2.3125     0.6505    -3.1832 C.3     
  21 C21            3.7738     0.7981    -3.6391 C.3     
  22 C22            3.8704     1.9945    -2.6777 C.3     
  23 F23           -2.9313    -1.5659     0.2266 F       
  24 N24           -4.0326     2.4252    -0.1878 N.2     
  25 C25           -5.3563     2.4546    -0.2347 C.2     
  26 N26           -5.8194     1.1680    -0.1304 N.pl3   
  27 C27           -6.2743     3.5172    -0.3626 C.2     
  28 C28           -7.6073     3.2476    -0.3834 C.2     
  29 C29           -8.0504     1.9187    -0.2776 C.2     
  30 C30           -7.1604     0.9123    -0.1508 C.2     
  31 H31            1.4398    -0.4886     0.2569 H       
  32 H32            0.8965     3.1642     0.3394 H       
  33 H33            2.0699     1.8632     0.6541 H       
  34 H34           -0.2281     5.3756    -3.4777 H       
  35 H35           -1.8296     5.3745     0.4554 H       
  36 H36           -1.7411     7.7737    -1.7898 H       
  37 H37           -2.4715     6.7483    -3.0481 H       
  38 H38           -3.1383     6.7429    -1.3978 H       
  39 H39            3.0805     0.6482    -1.1081 H       
  40 H40           -0.3876    -2.1329     0.3528 H       
  41 H41           -1.3943     2.6732    -0.1289 H       
  42 H42           -4.7373    -0.7222     0.0842 H       
  43 H43            1.9993    -0.3849    -3.0495 H       
  44 H44            1.6088     1.2333    -3.7775 H       
  45 H45            4.4068    -0.0425    -3.3550 H       
  46 H46            3.8781     1.0721    -4.6889 H       
  47 H47            3.5926     2.9447    -3.1338 H       
  48 H48            4.8149     2.0440    -2.1359 H       
  49 H49           -5.9225     4.5351    -0.4429 H       
  50 H50           -8.3219     4.0515    -0.4804 H       
  51 H51           -9.1083     1.7019    -0.2938 H       
  52 H52           -7.5120    -0.1057    -0.0706 H       
@<TRIPOS>BOND
   1    1    2 ar
   2    1    3 1
   3    1   16 ar
   4    2   14 ar
   5    2   31 1
   6    3    4 1
   7    3   32 1
   8    3   33 1
   9    4    5 am
  10    4   13 1
  11    5    6 1
  12    5   11 2
  13    6    7 2
  14    6    8 1
  15    7   10 1
  16    7   34 1
  17    8    9 2
  18    9   10 1
  19    9   35 1
  20   10   12 1
  21   12   36 1
  22   12   37 1
  23   12   38 1
  24   13   20 1
  25   13   22 1
  26   13   39 1
  27   14   19 ar
  28   14   40 1
  29   15   16 ar
  30   15   17 1
  31   15   19 ar
  32   16   41 1
  33   17   24 1
  34   17   18 2
  35   18   26 1
  36   18   42 1
  37   19   23 1
  38   20   21 1
  39   20   43 1
  40   20   44 1
  41   21   22 1
  42   21   45 1
  43   21   46 1
  44   22   47 1
  45   22   48 1
  46   24   25 2
  47   25   26 1
  48   25   27 1
  49   26   30 1
  50   27   28 2
  51   27   49 1
  52   28   29 1
  53   28   50 1
  54   29   30 2
  55   29   51 1
  56   30   52 1

#	End of record

