#	Name: ASD05842015
#	Creating user name:	WinNT
#	Creation time:	15. 06. 2019 21:03

#	Modifying user name:	WinNT
#	Modification time:	15. 06. 2019 21:03

#	Program:	/corina/corina34_cracker 3.40 0067  02.08.2006

@<TRIPOS>MOLECULE
ASD05842015
  51   54    0    0    0
SMALL
NO_CHARGES


@<TRIPOS>ATOM
   1 C1            -0.0167     1.3779     0.0096 C.ar    
   2 C2             0.0021    -0.0041     0.0020 C.ar    
   3 C3            -1.1857    -0.7116     0.0095 C.ar    
   4 C4            -2.3919    -0.0369     0.0251 C.ar    
   5 C5            -2.4106     1.3455     0.0336 C.ar    
   6 C6            -1.2232     2.0528     0.0305 C.ar    
   7 C7             1.2780     2.1491     0.0014 C.3     
   8 N8             1.5887     2.5990     1.3649 N.3     
   9 C9             2.8472     3.3561     1.3955 C.3     
  10 C10            3.1365     3.8067     2.8287 C.3     
  11 C11            4.4275     4.5834     2.8602 C.ar    
  12 C12            4.4144     5.9536     2.6779 C.ar    
  13 C13            5.5987     6.6661     2.7067 C.ar    
  14 C14            6.7960     6.0084     2.9182 C.ar    
  15 C15            6.8090     4.6383     3.1014 C.ar    
  16 C16            5.6243     3.9264     3.0769 C.ar    
  17 N17           -0.1286     3.6838    -2.1174 N.ar    
  18 C18           -1.1354     4.0722    -1.3732 C.ar    
  19 C19           -2.1084     4.9460    -1.8540 C.ar    
  20 C20           -2.0266     5.4208    -3.1319 C.ar    
  21 C21           -0.9438     5.0019    -3.9281 C.ar    
  22 C22           -0.7936     5.4472    -5.2510 C.ar    
  23 C23            0.2675     5.0186    -5.9889 C.ar    
  24 C24            1.2068     4.1430    -5.4487 C.ar    
  25 C25            1.0920     3.6913    -4.1699 C.ar    
  26 C26            0.0106     4.1115    -3.3763 C.ar    
  27 C27           -1.2436     3.5596     0.0398 C.3     
  28 H28            0.9446    -0.5313    -0.0101 H       
  29 H29           -1.1711    -1.7915     0.0029 H       
  30 H30           -3.3198    -0.5895     0.0302 H       
  31 H31           -3.3531     1.8727     0.0454 H       
  32 H32            2.0809     1.5073    -0.3612 H       
  33 H33            1.1811     3.0149    -0.6536 H       
  34 H34            0.8300     3.1429     1.7478 H       
  35 H35            3.6610     2.7226     1.0426 H       
  36 H36            2.7611     4.2303     0.7502 H       
  37 H37            2.3227     4.4402     3.1817 H       
  38 H38            3.2226     2.9325     3.4741 H       
  39 H39            3.4790     6.4675     2.5127 H       
  40 H40            5.5885     7.7365     2.5636 H       
  41 H41            7.7213     6.5649     2.9400 H       
  42 H42            7.7445     4.1244     3.2663 H       
  43 H43            5.6344     2.8560     3.2200 H       
  44 H44           -2.9266     5.2473    -1.2168 H       
  45 H45           -2.7722     6.0984    -3.5210 H       
  46 H46           -1.5157     6.1256    -5.6810 H       
  47 H47            0.3823     5.3618    -7.0065 H       
  48 H48            2.0393     3.8170    -6.0545 H       
  49 H49            1.8288     3.0125    -3.7666 H       
  50 H50           -2.1771     3.9076     0.4821 H       
  51 H51           -0.4031     3.9308     0.6263 H       
@<TRIPOS>BOND
   1    1    2 ar
   2    1    7 1
   3    1    6 ar
   4    2    3 ar
   5    2   28 1
   6    3    4 ar
   7    3   29 1
   8    4    5 ar
   9    4   30 1
  10    5    6 ar
  11    5   31 1
  12    6   27 1
  13    7    8 1
  14    7   32 1
  15    7   33 1
  16    8    9 1
  17    8   34 1
  18    9   10 1
  19    9   35 1
  20    9   36 1
  21   10   11 1
  22   10   37 1
  23   10   38 1
  24   11   12 ar
  25   11   16 ar
  26   12   13 ar
  27   12   39 1
  28   13   14 ar
  29   13   40 1
  30   14   15 ar
  31   14   41 1
  32   15   16 ar
  33   15   42 1
  34   16   43 1
  35   17   18 ar
  36   17   26 ar
  37   18   19 ar
  38   18   27 1
  39   19   20 ar
  40   19   44 1
  41   20   21 ar
  42   20   45 1
  43   21   22 ar
  44   21   26 ar
  45   22   23 ar
  46   22   46 1
  47   23   24 ar
  48   23   47 1
  49   24   25 ar
  50   24   48 1
  51   25   26 ar
  52   25   49 1
  53   27   50 1
  54   27   51 1

#	End of record

