#	Name: ASD07930613
#	Creating user name:	WinNT
#	Creation time:	15. 06. 2019 21:12

#	Modifying user name:	WinNT
#	Modification time:	15. 06. 2019 21:12

#	Program:	/corina/corina34_cracker 3.40 0067  02.08.2006

@<TRIPOS>MOLECULE
ASD07930613
  47   49    0    0    0
SMALL
NO_CHARGES


@<TRIPOS>ATOM
   1 C1             1.3696     0.7528    -1.5468 C.3     
   2 N2             2.3133    -2.0771    -1.4376 N.2     
   3 N3             0.0354    -2.5821    -1.3054 N.pl3   
   4 C4            -0.8996    -2.7428    -0.1869 C.3     
   5 C5            -1.5451    -1.3871     0.1318 C.3     
   6 S6            -0.2177    -0.1887     0.4728 S.o2    
   7 N7             0.8030    -0.3915    -0.8286 N.am    
   8 C8             1.0894    -1.6979    -1.1988 C.2     
   9 C9            -0.1434    -3.2503     1.0425 C.3     
  10 C10           -1.9705    -3.7336    -0.5646 C.ar    
  11 C11           -1.6887    -4.7473    -1.4615 C.ar    
  12 C12           -2.6782    -5.6613    -1.8087 C.ar    
  13 C13           -3.9454    -5.5526    -1.2536 C.ar    
  14 C14           -4.2220    -4.5376    -0.3577 C.ar    
  15 C15           -3.2350    -3.6317    -0.0088 C.ar    
  16 O16           -0.6965     1.1434     0.3474 O.2     
  17 O17            0.5513    -0.5941     1.5968 O.2     
  18 N18           -2.3961    -6.6891    -2.7172 N.am    
  19 C19           -3.3928    -7.2517    -3.4289 C.2     
  20 O20           -4.5198    -6.8026    -3.3564 O.2     
  21 C21           -3.1146    -8.4172    -4.2995 C.ar    
  22 N22           -1.8819    -8.9102    -4.3804 N.ar    
  23 C23           -1.6382    -9.9475    -5.1563 C.ar    
  24 C24           -2.6648   -10.5258    -5.8885 C.ar    
  25 N25           -3.8912   -10.0397    -5.8123 N.ar    
  26 C26           -4.1455    -9.0045    -5.0325 C.ar    
  27 C27           -2.3804   -11.7116    -6.7740 C.3     
  28 F28           -2.5516   -12.8916    -6.0423 F       
  29 F29           -3.2618   -11.7044    -7.8604 F       
  30 F30           -1.0637   -11.6395    -7.2412 F       
  31 F31           -0.4540    -4.8499    -2.0003 F       
  32 F32           -3.5086    -2.6404     0.8673 F       
  33 H33            2.3186     1.0344    -1.0905 H       
  34 H34            1.5341     0.4819    -2.5897 H       
  35 H35            0.6777     1.5934    -1.4945 H       
  36 H36            3.0422    -1.4421    -1.3575 H       
  37 H37           -0.0845    -3.0995    -2.1170 H       
  38 H38           -2.1336    -1.0506    -0.7216 H       
  39 H39           -2.1875    -1.4827     1.0072 H       
  40 H40            0.6914    -2.5829     1.2566 H       
  41 H41           -0.8173    -3.2755     1.8988 H       
  42 H42            0.2346    -4.2540     0.8478 H       
  43 H43           -4.7153    -6.2609    -1.5220 H       
  44 H44           -5.2085    -4.4532     0.0738 H       
  45 H45           -1.4835    -6.9961    -2.8342 H       
  46 H46           -0.6373   -10.3477    -5.2224 H       
  47 H47           -5.1480    -8.6075    -4.9701 H       
@<TRIPOS>BOND
   1    1    7 1
   2    1   33 1
   3    1   34 1
   4    1   35 1
   5    2    8 2
   6    2   36 1
   7    3    4 1
   8    3    8 1
   9    3   37 1
  10    4    5 1
  11    4    9 1
  12    4   10 1
  13    5    6 1
  14    5   38 1
  15    5   39 1
  16    6    7 am
  17    6   16 2
  18    6   17 2
  19    7    8 1
  20    9   40 1
  21    9   41 1
  22    9   42 1
  23   10   11 ar
  24   10   15 ar
  25   11   12 ar
  26   11   31 1
  27   12   13 ar
  28   12   18 1
  29   13   14 ar
  30   13   43 1
  31   14   15 ar
  32   14   44 1
  33   15   32 1
  34   18   19 am
  35   18   45 1
  36   19   20 2
  37   19   21 1
  38   21   22 ar
  39   21   26 ar
  40   22   23 ar
  41   23   24 ar
  42   23   46 1
  43   24   25 ar
  44   24   27 1
  45   25   26 ar
  46   26   47 1
  47   27   28 1
  48   27   29 1
  49   27   30 1

#	End of record

