#	Name: ASD01140022
#	Creating user name:	WinNT
#	Creation time:	15. 06. 2019 18:59

#	Modifying user name:	WinNT
#	Modification time:	15. 06. 2019 18:59

#	Program:	/corina/corina34_cracker 3.40 0067  02.08.2006

@<TRIPOS>MOLECULE
ASD01140022
  48   52    0    0    0
SMALL
NO_CHARGES


@<TRIPOS>ATOM
   1 C1            -0.0168     1.3886     0.0097 C.ar    
   2 C2             0.0021    -0.0041     0.0020 C.ar    
   3 C3            -1.1913    -0.7024     0.0129 C.ar    
   4 C4            -2.4043    -0.0273     0.0316 C.ar    
   5 C5            -2.4251     1.3500     0.0282 C.ar    
   6 C6            -1.2278     2.0554     0.0197 C.ar    
   7 C7            -3.6663    -0.8526     0.0707 C.3     
   8 N8            -4.8273     0.0067    -0.1837 N.am    
   9 C9            -4.8755     1.3029     0.5126 C.3     
  10 C10           -3.7031     2.1471     0.0156 C.3     
  11 H11           -3.6155    -1.6290    -0.6926 H       
  12 C12           -3.8066    -1.5030     1.4484 C.3     
  13 C13           -5.0668    -2.3345     1.5053 C.2     
  14 C14           -4.6932    -3.5887     1.7456 C.2     
  15 C15           -3.2333    -3.6522     1.8556 C.2     
  16 O16           -2.7058    -2.4260     1.6813 O.3     
  17 O17           -2.5934    -4.6624     2.0728 O.2     
  18 H18           -3.8265    -0.7376     2.2242 H       
  19 O19            1.2708     1.8421    -0.0002 O.3     
  20 O20            1.3011    -0.4228    -0.0154 O.3     
  21 C21            2.0779     0.7176     0.3962 C.3     
  22 C22           -5.8114    -0.3755    -1.0216 C.2     
  23 O23           -6.8655     0.4344    -1.2358 O.3     
  24 O24           -5.7475    -1.4509    -1.5835 O.2     
  25 C25           -7.8876    -0.0420    -2.1505 C.3     
  26 C26           -8.9799     0.9899    -2.2646 C.ar    
  27 C27           -8.9017     1.9753    -3.2310 C.ar    
  28 C28           -9.9037     2.9218    -3.3357 C.ar    
  29 C29          -10.9841     2.8828    -2.4743 C.ar    
  30 C30          -11.0628     1.8969    -1.5085 C.ar    
  31 C31          -10.0630     0.9477    -1.4067 C.ar    
  32 H32           -1.1797    -1.7823     0.0066 H       
  33 H33           -1.2434     3.1353     0.0254 H       
  34 H34           -5.8150     1.8077     0.2875 H       
  35 H35           -4.7882     1.1473     1.5879 H       
  36 H36           -3.5890     3.0177     0.6615 H       
  37 H37           -3.9075     2.4808    -1.0018 H       
  38 H38           -6.0782    -1.9785     1.3762 H       
  39 H39           -5.3627    -4.4302     1.8447 H       
  40 H40            3.0376     0.7339    -0.1203 H       
  41 H41            2.2232     0.7123     1.4765 H       
  42 H42           -7.4456    -0.2133    -3.1320 H       
  43 H43           -8.3068    -0.9746    -1.7730 H       
  44 H44           -8.0576     2.0058    -3.9040 H       
  45 H45           -9.8422     3.6921    -4.0902 H       
  46 H46          -11.7666     3.6227    -2.5556 H       
  47 H47          -11.9068     1.8665    -0.8353 H       
  48 H48          -10.1245     0.1775    -0.6521 H       
@<TRIPOS>BOND
   1    1    2 ar
   2    1   19 1
   3    1    6 ar
   4    2    3 ar
   5    2   20 1
   6    3    4 ar
   7    3   32 1
   8    4    5 ar
   9    4    7 1
  10    5    6 ar
  11    5   10 1
  12    6   33 1
  13    7    8 1
  14    7   11 1
  15    7   12 1
  16    8    9 1
  17    8   22 am
  18    9   10 1
  19    9   34 1
  20    9   35 1
  21   10   36 1
  22   10   37 1
  23   12   13 1
  24   12   18 1
  25   12   16 1
  26   13   14 2
  27   13   38 1
  28   14   15 1
  29   14   39 1
  30   15   16 1
  31   15   17 2
  32   19   21 1
  33   20   21 1
  34   21   40 1
  35   21   41 1
  36   22   23 1
  37   22   24 2
  38   23   25 1
  39   25   26 1
  40   25   42 1
  41   25   43 1
  42   26   27 ar
  43   26   31 ar
  44   27   28 ar
  45   27   44 1
  46   28   29 ar
  47   28   45 1
  48   29   30 ar
  49   29   46 1
  50   30   31 ar
  51   30   47 1
  52   31   48 1

#	End of record

