#	Name: ASD00840809
#	Creating user name:	WinNT
#	Creation time:	15. 06. 2019 18:40

#	Modifying user name:	WinNT
#	Modification time:	15. 06. 2019 18:40

#	Program:	/corina/corina34_cracker 3.40 0067  02.08.2006

@<TRIPOS>MOLECULE
ASD00840809
  98  103    0    0    0
SMALL
NO_CHARGES


@<TRIPOS>ATOM
   1 F1             6.0749    -1.9626    -2.0085 F       
   2 N2             1.1032     1.4620    -0.7004 N.ar    
   3 C3             1.3544     0.1695    -0.8231 C.ar    
   4 C4             1.2593    -0.6774     0.2740 C.ar    
   5 C5             0.8972    -0.1509     1.5014 C.ar    
   6 C6             0.6419     1.2110     1.5884 C.ar    
   7 C7             0.7559     1.9931     0.4566 C.ar    
   8 C8             1.5460    -2.1497     0.1293 C.3     
   9 C9             1.2498    -2.8772     1.4232 C.2     
  10 C10            0.7273    -2.7434    -1.0188 C.3     
  11 C11           -0.7345    -2.4520    -0.7965 C.2     
  12 N12           -1.6589    -2.9678    -1.6307 N.am    
  13 O13           -1.0790    -1.7532     0.1330 O.2     
  14 C14           -3.0789    -2.6075    -1.4996 C.3     
  15 C15           -3.5959    -2.1590    -2.8706 C.3     
  16 N16           -3.3090    -3.2024    -3.8639 N.3     
  17 C17           -1.8626    -3.4061    -4.0202 C.3     
  18 C18           -1.2737    -3.9011    -2.7002 C.3     
  19 C19           -3.9389    -2.8890    -5.1535 C.3     
  20 C20           -3.5174    -3.9293    -6.1950 C.3     
  21 C21           -4.2242    -3.6331    -7.5197 C.3     
  22 N22           -5.6784    -3.6752    -7.3202 N.3     
  23 C23           -6.1124    -2.6531    -6.3593 C.3     
  24 C24           -5.4620    -2.9201    -5.0000 C.3     
  25 C25           -6.3894    -3.5324    -8.5977 C.3     
  26 O26            0.1735    -2.9509     1.9776 O.2     
  27 N27            2.4020    -3.4263     1.8424 N.am    
  28 C28            3.0232    -2.3821    -0.0944 C.ar    
  29 C29            3.4631    -3.1554     0.9751 C.ar    
  30 C30            3.8900    -1.9836    -1.0880 C.ar    
  31 C31            5.2232    -2.3516    -1.0346 C.ar    
  32 C32            5.6834    -3.1289     0.0332 C.ar    
  33 C33            4.8004    -3.5292     1.0356 C.ar    
  34 C34            2.2430    -6.0030     2.7963 C.ar    
  35 C35            0.9881    -6.3865     2.3455 C.ar    
  36 C36            3.2559    -6.9373     2.9019 C.ar    
  37 C37            3.0220    -8.2549     2.5586 C.ar    
  38 C38            1.7684    -8.6435     2.1071 C.ar    
  39 C39            0.7507    -7.7084     2.0008 C.ar    
  40 O40            1.5387    -9.9398     1.7700 O.3     
  41 O41           -0.0076    -5.4675     2.2423 O.3     
  42 C42           -1.2738    -5.9329     1.7711 C.3     
  43 C43            2.6330   -10.8489     1.9049 C.3     
  44 C44           -7.8920    -3.7055    -8.3673 C.3     
  45 C45           -6.1193    -2.1433    -9.1792 C.3     
  46 S46            2.5476    -4.3220     3.2277 S.o2    
  47 O47            3.9136    -4.2475     3.6120 O.2     
  48 O48            1.4788    -3.9255     4.0761 O.2     
  49 O49            1.7080    -0.3345    -2.0322 O.3     
  50 C50            2.2179    -0.1458    -4.3870 C.3     
  51 C51            1.6799     0.5641    -3.1430 C.3     
  52 C52            7.0610    -3.5143     0.0967 C.1     
  53 N53            8.1540    -3.8201     0.1470 N.1     
  54 H54            0.8148    -0.7849     2.3718 H       
  55 H55            0.3567     1.6537     2.5313 H       
  56 H56            0.5587     3.0531     0.5190 H       
  57 H57            1.0473    -2.2988    -1.9611 H       
  58 H58            0.8813    -3.8219    -1.0551 H       
  59 H59           -3.6465    -3.4738    -1.1597 H       
  60 H60           -3.1852    -1.7926    -0.7835 H       
  61 H61           -4.6720    -1.9936    -2.8172 H       
  62 H62           -3.0993    -1.2333    -3.1615 H       
  63 H63           -1.6816    -4.1452    -4.8006 H       
  64 H64           -1.3901    -2.4631    -4.2952 H       
  65 H65           -0.1872    -3.9439    -2.7772 H       
  66 H66           -1.6668    -4.8919    -2.4725 H       
  67 H67           -3.6250    -1.8979    -5.4809 H       
  68 H68           -2.4381    -3.8825    -6.3400 H       
  69 H69           -3.7958    -4.9246    -5.8486 H       
  70 H70           -3.9345    -2.6432    -7.8725 H       
  71 H71           -3.9373    -4.3804    -8.2595 H       
  72 H72           -5.8139    -1.6679    -6.7175 H       
  73 H73           -7.1969    -2.6887    -6.2563 H       
  74 H74           -5.7711    -3.8995    -4.6348 H       
  75 H75           -5.7721    -2.1523    -4.2911 H       
  76 H76           -6.0389    -4.2929    -9.2956 H       
  77 H77            3.5288    -1.3835    -1.9100 H       
  78 H78            5.1561    -4.1295     1.8600 H       
  79 H79            4.2320    -6.6368     3.2530 H       
  80 H80            3.8153    -8.9830     2.6413 H       
  81 H81           -0.2255    -8.0090     1.6500 H       
  82 H82           -1.1578    -6.3525     0.7718 H       
  83 H83           -1.6527    -6.7007     2.4457 H       
  84 H84           -1.9769    -5.1007     1.7364 H       
  85 H85            2.3154   -11.8471     1.6037 H       
  86 H86            3.4568   -10.5226     1.2700 H       
  87 H87            2.9617   -10.8702     2.9440 H       
  88 H88           -8.4196    -3.5996    -9.3152 H       
  89 H89           -8.0844    -4.6952    -7.9530 H       
  90 H90           -8.2425    -2.9451    -7.6694 H       
  91 H91           -5.0488    -2.0200    -9.3434 H       
  92 H92           -6.6469    -2.0373   -10.1272 H       
  93 H93           -6.4698    -1.3828    -8.4814 H       
  94 H94            2.2785     0.5635    -5.2124 H       
  95 H95            3.2104    -0.5446    -4.1770 H       
  96 H96            1.5481    -0.9620    -4.6577 H       
  97 H97            0.6544     0.8865    -3.3236 H       
  98 H98            2.3005     1.4328    -2.9234 H       
@<TRIPOS>BOND
   1    1   31 1
   2    2    3 ar
   3    2    7 ar
   4    3    4 ar
   5    3   49 1
   6    4    5 ar
   7    4    8 1
   8    5    6 ar
   9    5   54 1
  10    6    7 ar
  11    6   55 1
  12    7   56 1
  13    8    9 1
  14    8   10 1
  15    8   28 1
  16    9   26 2
  17    9   27 am
  18   10   11 1
  19   10   57 1
  20   10   58 1
  21   11   12 am
  22   11   13 2
  23   12   14 1
  24   12   18 1
  25   14   15 1
  26   14   59 1
  27   14   60 1
  28   15   16 1
  29   15   61 1
  30   15   62 1
  31   16   17 1
  32   16   19 1
  33   17   18 1
  34   17   63 1
  35   17   64 1
  36   18   65 1
  37   18   66 1
  38   19   20 1
  39   19   24 1
  40   19   67 1
  41   20   21 1
  42   20   68 1
  43   20   69 1
  44   21   22 1
  45   21   70 1
  46   21   71 1
  47   22   23 1
  48   22   25 1
  49   23   24 1
  50   23   72 1
  51   23   73 1
  52   24   74 1
  53   24   75 1
  54   25   44 1
  55   25   45 1
  56   25   76 1
  57   27   46 am
  58   27   29 1
  59   28   29 ar
  60   28   30 ar
  61   29   33 ar
  62   30   31 ar
  63   30   77 1
  64   31   32 ar
  65   32   33 ar
  66   32   52 1
  67   33   78 1
  68   34   35 ar
  69   34   36 ar
  70   34   46 1
  71   35   41 1
  72   35   39 ar
  73   36   37 ar
  74   36   79 1
  75   37   38 ar
  76   37   80 1
  77   38   39 ar
  78   38   40 1
  79   39   81 1
  80   40   43 1
  81   41   42 1
  82   42   82 1
  83   42   83 1
  84   42   84 1
  85   43   85 1
  86   43   86 1
  87   43   87 1
  88   44   88 1
  89   44   89 1
  90   44   90 1
  91   45   91 1
  92   45   92 1
  93   45   93 1
  94   46   47 2
  95   46   48 2
  96   49   51 1
  97   50   51 1
  98   50   94 1
  99   50   95 1
 100   50   96 1
 101   51   97 1
 102   51   98 1
 103   52   53 3

#	End of record

