#	Name: ASD01913720
#	Creating user name:	WinNT
#	Creation time:	15. 06. 2019 20:02

#	Modifying user name:	WinNT
#	Modification time:	15. 06. 2019 20:02

#	Program:	/corina/corina34_cracker 3.40 0067  02.08.2006

@<TRIPOS>MOLECULE
ASD01913720
  40   42    0    0    0
SMALL
NO_CHARGES


@<TRIPOS>ATOM
   1 O1            -0.0143     1.3514    -0.0622 O.3     
   2 C2             0.0037    -0.0035    -0.0497 C.ar    
   3 N3             1.1641    -0.6408    -0.0721 N.ar    
   4 C4             1.2338    -1.9556    -0.0611 C.ar    
   5 C5             0.0728    -2.7287    -0.0257 C.ar    
   6 C6            -1.1731    -2.0843    -0.0012 C.ar    
   7 C7            -1.1975    -0.7049    -0.0077 C.ar    
   8 C8             0.1542    -4.2024    -0.0145 C.2     
   9 N9             1.3565    -4.8110    -0.0386 N.am    
  10 O10           -0.8634    -4.8673     0.0165 O.2     
  11 C11            1.4373    -6.2059     0.0579 C.ar    
  12 C12            1.2498     2.0167    -0.0997 C.3     
  13 C13            1.0326     3.5079    -0.1087 C.ar    
  14 C14            0.9623     4.2034     1.0839 C.ar    
  15 C15            0.7630     5.5712     1.0757 C.ar    
  16 C16            0.6344     6.2437    -0.1252 C.ar    
  17 C17            0.7055     5.5484    -1.3178 C.ar    
  18 C18            0.9092     4.1812    -1.3097 C.ar    
  19 C19            2.5896    -6.8057     0.5612 C.ar    
  20 C20            2.6638    -8.1860     0.6543 C.ar    
  21 C21            1.5963    -8.9650     0.2480 C.ar    
  22 C22            0.4524    -8.3704    -0.2521 C.ar    
  23 C23            0.3677    -6.9940    -0.3421 C.ar    
  24 O24            3.6390    -6.0383     0.9596 O.3     
  25 H25            2.1988    -2.4402    -0.0802 H       
  26 H26           -2.0903    -2.6538     0.0264 H       
  27 H27           -2.1386    -0.1754     0.0109 H       
  28 H28            2.1658    -4.2830    -0.1228 H       
  29 H29            1.8323     1.7397     0.7789 H       
  30 H30            1.7886     1.7226    -1.0004 H       
  31 H31            1.0628     3.6779     2.0221 H       
  32 H32            0.7074     6.1145     2.0075 H       
  33 H33            0.4779     7.3123    -0.1316 H       
  34 H34            0.6047     6.0738    -2.2560 H       
  35 H35            0.9648     3.6379    -2.2415 H       
  36 H36            3.5559    -8.6536     1.0441 H       
  37 H37            1.6562   -10.0408     0.3210 H       
  38 H38           -0.3786    -8.9830    -0.5689 H       
  39 H39           -0.5269    -6.5322    -0.7331 H       
  40 H40            3.6057    -5.7791     1.8906 H       
@<TRIPOS>BOND
   1    1    2 1
   2    1   12 1
   3    2    3 ar
   4    2    7 ar
   5    3    4 ar
   6    4    5 ar
   7    4   25 1
   8    5    6 ar
   9    5    8 1
  10    6    7 ar
  11    6   26 1
  12    7   27 1
  13    8    9 am
  14    8   10 2
  15    9   11 1
  16    9   28 1
  17   11   19 ar
  18   11   23 ar
  19   12   13 1
  20   12   29 1
  21   12   30 1
  22   13   14 ar
  23   13   18 ar
  24   14   15 ar
  25   14   31 1
  26   15   16 ar
  27   15   32 1
  28   16   17 ar
  29   16   33 1
  30   17   18 ar
  31   17   34 1
  32   18   35 1
  33   19   20 ar
  34   19   24 1
  35   20   21 ar
  36   20   36 1
  37   21   22 ar
  38   21   37 1
  39   22   23 ar
  40   22   38 1
  41   23   39 1
  42   24   40 1

#	End of record

