#	Name: ASD03331864
#	Creating user name:	WinNT
#	Creation time:	15. 06. 2019 20:40

#	Modifying user name:	WinNT
#	Modification time:	15. 06. 2019 20:40

#	Program:	/corina/corina34_cracker 3.40 0067  02.08.2006

@<TRIPOS>MOLECULE
ASD03331864
  53   56    0    0    0
SMALL
NO_CHARGES


@<TRIPOS>ATOM
   1 C1             8.3761    -0.3229     1.1233 C.ar    
   2 C2             8.8790     0.1107     2.3566 C.ar    
   3 C3             8.3237     1.2367     2.9777 C.ar    
   4 C4             7.2949     1.9067     2.3788 C.ar    
   5 C5             6.7980     1.4717     1.1532 C.ar    
   6 C6             7.3471     0.3534     0.5318 C.ar    
   7 N7             5.7482     2.1576     0.5467 N.am    
   8 C8             5.6718     3.4993     0.6486 C.2     
   9 N9             4.7098     4.1717    -0.0139 N.am    
  10 O10            6.4706     4.1031     1.3382 O.2     
  11 C11            4.5696     5.5524     0.1674 C.ar    
  12 C12            3.1630     7.4922     0.3411 C.ar    
  13 C13            3.3057     6.1290     0.1623 C.ar    
  14 C14            5.6919     6.3444     0.3580 C.ar    
  15 C15            5.5474     7.7176     0.5380 C.ar    
  16 C16            4.2754     8.2884     0.5256 C.ar    
  17 C17            6.7433     8.5707     0.7428 C.ar    
  18 N18            7.9442     8.0090     0.7517 N.ar    
  19 C19            9.0350     8.7376     0.9312 C.ar    
  20 C20            8.9145    10.1026     1.1113 C.ar    
  21 C21            7.6363    10.6665     1.0971 C.ar    
  22 N22            6.5853     9.8766     0.9069 N.ar    
  23 N23            7.4678    12.0303     1.2741 N.3     
  24 C24            6.0407    12.3975     1.2218 C.3     
  25 C25            5.7052    13.1175     2.5449 C.3     
  26 C26            7.0902    13.6208     3.0300 C.3     
  27 C27            8.0192    12.4681     2.5741 C.3     
  28 C28            9.9846    -0.6131     2.9965 C.2     
  29 C29           10.5239    -0.1446     4.3234 C.3     
  30 O30           10.4638    -1.5882     2.4572 O.2     
  31 H31            8.8041    -1.1879     0.6386 H       
  32 H32            8.7080     1.5743     3.9288 H       
  33 H33            6.8661     2.7749     2.8570 H       
  34 H34            6.9587     0.0197    -0.4191 H       
  35 H35            5.0722     1.6695     0.0510 H       
  36 H36            4.1147     3.6988    -0.6165 H       
  37 H37            2.1783     7.9356     0.3363 H       
  38 H38            2.4322     5.5105     0.0179 H       
  39 H39            6.6750     5.8975     0.3671 H       
  40 H40            4.1601     9.3532     0.6647 H       
  41 H41           10.0086     8.2702     0.9372 H       
  42 H42            9.7885    10.7193     1.2601 H       
  43 H43            5.8605    13.0659     0.3799 H       
  44 H44            5.4303    11.5000     1.1228 H       
  45 H45            5.0311    13.9554     2.3674 H       
  46 H46            5.2747    12.4208     3.2642 H       
  47 H47            7.3593    14.5563     2.5396 H       
  48 H48            7.1077    13.7309     4.1142 H       
  49 H49            7.9897    11.6498     3.2937 H       
  50 H50            9.0401    12.8296     2.4510 H       
  51 H51            9.9781    -0.6333     5.1305 H       
  52 H52           11.5818    -0.3971     4.3953 H       
  53 H53           10.4019     0.9356     4.4043 H       
@<TRIPOS>BOND
   1    1    2 ar
   2    1    6 ar
   3    1   31 1
   4    2    3 ar
   5    2   28 1
   6    3    4 ar
   7    3   32 1
   8    4    5 ar
   9    4   33 1
  10    5    6 ar
  11    5    7 1
  12    6   34 1
  13    7    8 am
  14    7   35 1
  15    8    9 am
  16    8   10 2
  17    9   11 1
  18    9   36 1
  19   11   14 ar
  20   11   13 ar
  21   12   13 ar
  22   12   16 ar
  23   12   37 1
  24   13   38 1
  25   14   15 ar
  26   14   39 1
  27   15   16 ar
  28   15   17 1
  29   16   40 1
  30   17   18 ar
  31   17   22 ar
  32   18   19 ar
  33   19   20 ar
  34   19   41 1
  35   20   21 ar
  36   20   42 1
  37   21   22 ar
  38   21   23 1
  39   23   24 1
  40   23   27 1
  41   24   25 1
  42   24   43 1
  43   24   44 1
  44   25   26 1
  45   25   45 1
  46   25   46 1
  47   26   27 1
  48   26   47 1
  49   26   48 1
  50   27   49 1
  51   27   50 1
  52   28   29 1
  53   28   30 2
  54   29   51 1
  55   29   52 1
  56   29   53 1

#	End of record

