#	Name: ASD04882233
#	Creating user name:	WinNT
#	Creation time:	15. 06. 2019 20:54

#	Modifying user name:	WinNT
#	Modification time:	15. 06. 2019 20:54

#	Program:	/corina/corina34_cracker 3.40 0067  02.08.2006

@<TRIPOS>MOLECULE
ASD04882233
  65   68    0    0    0
SMALL
NO_CHARGES


@<TRIPOS>ATOM
   1 N1            -0.0359     1.4222     0.0193 N.am    
   2 C2             0.1415     0.0364    -0.0459 C.ar    
   3 C3            -0.9594    -0.8090     0.0212 C.ar    
   4 C4            -0.7893    -2.1794    -0.0432 C.ar    
   5 C5             0.4747    -2.7171    -0.1741 C.ar    
   6 C6             1.5873    -1.8764    -0.2424 C.ar    
   7 C7             1.4154    -0.4938    -0.1831 C.ar    
   8 C8            -2.3432    -0.2300     0.1652 C.3     
   9 C9            -3.1649    -0.5507    -1.0865 C.3     
  10 C10           -3.0301    -0.8439     1.3882 C.3     
  11 C11           -4.4559    -0.2980     1.4940 C.3     
  12 N12           -5.2009    -0.6313     0.2732 N.3     
  13 C13           -4.5868    -0.0133    -0.9089 C.3     
  14 C14            2.9429    -2.4500    -0.3826 C.2     
  15 O15            3.9102    -1.7162    -0.4419 O.2     
  16 C16            0.8698     2.2449    -0.5459 C.2     
  17 O17            1.8774     1.7856    -1.0509 O.2     
  18 C18            0.6413     3.6931    -0.5523 C.2     
  19 N19            3.1061    -3.7864    -0.4448 N.am    
  20 O20           -0.4274     4.3294    -0.0296 O.3     
  21 C21           -0.2961     5.6487    -0.2198 C.2     
  22 C22            0.8650     5.8807    -0.8710 C.2     
  23 C23            1.4757     4.6349    -1.0833 C.2     
  24 C24            4.4492    -4.3547    -0.5838 C.3     
  25 C25            4.3549    -5.8810    -0.6300 C.3     
  26 C26            5.7576    -6.4745    -0.7751 C.3     
  27 N27            5.6673    -7.9361    -0.8193 N.am    
  28 C28            5.5234    -8.6533    -1.9470 C.2     
  29 C29           -1.2813     6.7010     0.2197 C.3     
  30 C30            5.7286    -8.8057     0.3614 C.3     
  31 C31            5.1659   -10.1681    -0.1006 C.3     
  32 C32            5.4555   -10.1288    -1.6201 C.3     
  33 O33            5.4569    -8.1855    -3.0640 O.2     
  34 H34           -0.8128     1.7912     0.4678 H       
  35 H35           -1.6486    -2.8315     0.0094 H       
  36 H36            0.6035    -3.7883    -0.2234 H       
  37 H37            2.2723     0.1615    -0.2355 H       
  38 H38           -2.2748     0.8508     0.2889 H       
  39 H39           -2.7038    -0.0802    -1.9549 H       
  40 H40           -3.1994    -1.6304    -1.2323 H       
  41 H41           -3.0626    -1.9281     1.2813 H       
  42 H42           -2.4728    -0.5828     2.2878 H       
  43 H43           -4.9526    -0.7440     2.3557 H       
  44 H44           -4.4222     0.7848     1.6147 H       
  45 H45           -5.2795    -1.6307     0.1591 H       
  46 H46           -4.5524     1.0681    -0.7769 H       
  47 H47           -5.1784    -0.2526    -1.7925 H       
  48 H48            2.3342    -4.3719    -0.3975 H       
  49 H49            1.2525     6.8441    -1.1681 H       
  50 H50            2.4192     4.4553    -1.5771 H       
  51 H51            4.9042    -3.9907    -1.5050 H       
  52 H52            5.0607    -4.0540     0.2670 H       
  53 H53            3.8999    -6.2450     0.2913 H       
  54 H54            3.7433    -6.1817    -1.4807 H       
  55 H55            6.2126    -6.1106    -1.6963 H       
  56 H56            6.3691    -6.1739     0.0756 H       
  57 H57           -2.1237     6.2237     0.7201 H       
  58 H58           -0.7931     7.3909     0.9081 H       
  59 H59           -1.6395     7.2497    -0.6514 H       
  60 H60            6.7604    -8.9171     0.6946 H       
  61 H61            5.1145    -8.3964     1.1636 H       
  62 H62            5.6983   -10.9917     0.3752 H       
  63 H63            4.0953   -10.2340     0.0934 H       
  64 H64            4.6475   -10.6058    -2.1749 H       
  65 H65            6.4075   -10.6121    -1.8397 H       
@<TRIPOS>BOND
   1    1    2 1
   2    1   16 am
   3    1   34 1
   4    2    3 ar
   5    2    7 ar
   6    3    4 ar
   7    3    8 1
   8    4    5 ar
   9    4   35 1
  10    5    6 ar
  11    5   36 1
  12    6    7 ar
  13    6   14 1
  14    7   37 1
  15    8    9 1
  16    8   10 1
  17    8   38 1
  18    9   13 1
  19    9   39 1
  20    9   40 1
  21   10   11 1
  22   10   41 1
  23   10   42 1
  24   11   12 1
  25   11   43 1
  26   11   44 1
  27   12   13 1
  28   12   45 1
  29   13   46 1
  30   13   47 1
  31   14   15 2
  32   14   19 am
  33   16   17 2
  34   16   18 1
  35   18   20 1
  36   18   23 2
  37   19   24 1
  38   19   48 1
  39   20   21 1
  40   21   22 2
  41   21   29 1
  42   22   23 1
  43   22   49 1
  44   23   50 1
  45   24   25 1
  46   24   51 1
  47   24   52 1
  48   25   26 1
  49   25   53 1
  50   25   54 1
  51   26   27 1
  52   26   55 1
  53   26   56 1
  54   27   28 am
  55   27   30 1
  56   28   33 2
  57   28   32 1
  58   29   57 1
  59   29   58 1
  60   29   59 1
  61   30   31 1
  62   30   60 1
  63   30   61 1
  64   31   32 1
  65   31   62 1
  66   31   63 1
  67   32   64 1
  68   32   65 1

#	End of record

