#	Name: ASD02039199
#	Creating user name:	WinNT
#	Creation time:	15. 06. 2019 20:17

#	Modifying user name:	WinNT
#	Modification time:	15. 06. 2019 20:17

#	Program:	/corina/corina34_cracker 3.40 0067  02.08.2006

@<TRIPOS>MOLECULE
ASD02039199
  42   45    0    0    0
SMALL
NO_CHARGES


@<TRIPOS>ATOM
   1 N1             0.0020     1.2626     0.3688 N.2     
   2 C2             0.0063    -0.0135     0.0887 C.2     
   3 N3             1.2922    -0.3754    -0.1079 N.2     
   4 C4             1.9959     0.7160     0.0672 C.2     
   5 O5             1.1350     1.6955     0.3604 O.3     
   6 C6             3.4937     0.8428    -0.0411 C.3     
   7 N7            -1.1049    -0.8433     0.0085 N.pl3   
   8 C8            -2.3915    -0.3042     0.1293 C.ar    
   9 C9            -2.6369     1.0037    -0.2681 C.ar    
  10 C10           -3.9059     1.5346    -0.1486 C.ar    
  11 C11           -4.9357     0.7618     0.3683 C.ar    
  12 C12           -4.6914    -0.5443     0.7654 C.ar    
  13 C13           -3.4239    -1.0788     0.6412 C.ar    
  14 O14           -6.1851     1.2856     0.4861 O.3     
  15 C15            3.8673     1.1879    -1.4596 C.ar    
  16 C16            3.9576     2.5206    -1.8428 C.ar    
  17 C17            4.2940     2.8595    -3.1225 C.ar    
  18 C18            4.5512     1.8613    -4.0592 C.ar    
  19 C19            4.4608     0.5102    -3.6728 C.ar    
  20 C20            4.1193     0.1887    -2.3543 C.ar    
  21 N21            4.9025     1.8702    -5.3838 N.pl3   
  22 N22            5.0328     0.5513    -5.8310 N.2     
  23 C23            4.7821    -0.2777    -4.8583 C.2     
  24 C24           -4.1724     2.9539    -0.5793 C.3     
  25 C25           -7.1974     0.4338     1.0264 C.3     
  26 F26           -7.3385    -0.6962     0.2138 F       
  27 F27           -6.8328     0.0371     2.3175 F       
  28 H28            3.8410     1.6302     0.6279 H       
  29 H29            3.9595    -0.1024     0.2377 H       
  30 H30           -0.9895    -1.7963    -0.1312 H       
  31 H31           -1.8353     1.6055    -0.6702 H       
  32 H32           -5.4935    -1.1451     1.1681 H       
  33 H33           -3.2339    -2.0961     0.9501 H       
  34 H34            3.7590     3.2981    -1.1199 H       
  35 H35            4.3600     3.8991    -3.4075 H       
  36 H36            4.0474    -0.8447    -2.0486 H       
  37 H37            5.0385     2.6638    -5.9246 H       
  38 H38            4.8082    -1.3557    -4.9182 H       
  39 H39           -4.4637     2.9663    -1.6296 H       
  40 H40           -4.9767     3.3723     0.0258 H       
  41 H41           -3.2695     3.5497    -0.4457 H       
  42 H42           -8.1435     0.9735     1.0657 H       
@<TRIPOS>BOND
   1    1    2 2
   2    1    5 1
   3    2    3 1
   4    2    7 1
   5    3    4 2
   6    4    5 1
   7    4    6 1
   8    6   15 1
   9    6   28 1
  10    6   29 1
  11    7    8 1
  12    7   30 1
  13    8    9 ar
  14    8   13 ar
  15    9   10 ar
  16    9   31 1
  17   10   11 ar
  18   10   24 1
  19   11   12 ar
  20   11   14 1
  21   12   13 ar
  22   12   32 1
  23   13   33 1
  24   14   25 1
  25   15   16 ar
  26   15   20 ar
  27   16   17 ar
  28   16   34 1
  29   17   18 ar
  30   17   35 1
  31   18   19 ar
  32   18   21 1
  33   19   20 ar
  34   19   23 1
  35   20   36 1
  36   21   22 1
  37   21   37 1
  38   22   23 2
  39   23   38 1
  40   24   39 1
  41   24   40 1
  42   24   41 1
  43   25   26 1
  44   25   27 1
  45   25   42 1

#	End of record

