#	Name: ASD01814303
#	Creating user name:	WinNT
#	Creation time:	15. 06. 2019 19:32

#	Modifying user name:	WinNT
#	Modification time:	15. 06. 2019 19:32

#	Program:	/corina/corina34_cracker 3.40 0067  02.08.2006

@<TRIPOS>MOLECULE
ASD01814303
  56   60    0    0    0
SMALL
NO_CHARGES


@<TRIPOS>ATOM
   1 C1            -0.0168     1.3869     0.0097 C.ar    
   2 C2             0.0021    -0.0041     0.0020 C.ar    
   3 C3             1.1801    -0.6897    -0.0129 C.ar    
   4 C4             2.3948     0.0129    -0.0207 C.ar    
   5 C5             2.3717     1.4290    -0.0129 C.ar    
   6 C6             1.1455     2.1015     0.0024 C.ar    
   7 C7             3.6293    -0.6694    -0.0365 C.ar    
   8 C8             4.8031     0.0063    -0.0446 C.ar    
   9 C9             4.8359     1.4095    -0.0374 C.ar    
  10 C10            3.6406     2.1511    -0.0211 C.ar    
  11 C11            6.1026     2.1526    -0.0470 C.2     
  12 N12            6.0328     3.5041    -0.0399 N.am    
  13 C13            4.8302     4.1313    -0.0241 C.2     
  14 N14            3.6961     3.4935    -0.0158 N.2     
  15 C15            3.6424    -2.1763    -0.0442 C.3     
  16 C16            3.5087    -2.6726    -1.4608 C.ar    
  17 C17            4.6390    -2.8892    -2.2267 C.ar    
  18 C18            4.5170    -3.3444    -3.5260 C.ar    
  19 C19            3.2633    -3.5833    -4.0601 C.ar    
  20 C20            2.1324    -3.3663    -3.2932 C.ar    
  21 C21            2.2560    -2.9165    -1.9921 C.ar    
  22 O22            7.1745     1.5748    -0.0604 O.2     
  23 Cl23           3.1092    -4.1545    -5.6922 Cl      
  24 C24            7.2655     4.2957    -0.0490 C.3     
  25 C25            7.3178     5.1723     1.2039 C.3     
  26 C26            8.6052     5.9990     1.1945 C.3     
  27 C27            8.6317     6.8873    -0.0509 C.3     
  28 C28            8.5794     6.0107    -1.3038 C.3     
  29 C29            7.2920     5.1840    -1.2944 C.3     
  30 O30            7.2930     4.3426     2.3671 O.3     
  31 C31            6.6789     4.9534     3.5037 C.3     
  32 H32           -0.9630     1.9076     0.0169 H       
  33 H33           -0.9305    -0.5488     0.0083 H       
  34 H34            1.1786    -1.7697    -0.0183 H       
  35 H35            1.1188     3.1811     0.0081 H       
  36 H36            5.7317    -0.5451    -0.0563 H       
  37 H37            4.8132     5.2111    -0.0182 H       
  38 H38            4.5813    -2.5336     0.3789 H       
  39 H39            2.8098    -2.5499     0.5518 H       
  40 H40            5.6176    -2.7024    -1.8097 H       
  41 H41            5.4001    -3.5132    -4.1243 H       
  42 H42            1.1535    -3.5526    -3.7096 H       
  43 H43            1.3733    -2.7471    -1.3933 H       
  44 H44            8.1264     3.6273    -0.0610 H       
  45 H45            6.4569     5.8406     1.2159 H       
  46 H46            8.6425     6.6235     2.0871 H       
  47 H47            9.4662     5.3306     1.1825 H       
  48 H48            7.7708     7.5557    -0.0389 H       
  49 H49            9.5489     7.4763    -0.0577 H       
  50 H50            8.5983     6.6436    -2.1911 H       
  51 H51            9.4403     5.3423    -1.3159 H       
  52 H52            7.2547     4.5595    -2.1870 H       
  53 H53            6.4311     5.8523    -1.2824 H       
  54 H54            7.2230     5.8604     3.7671 H       
  55 H55            5.6453     5.2056     3.2665 H       
  56 H56            6.6999     4.2600     4.3445 H       
@<TRIPOS>BOND
   1    1    2 ar
   2    1    6 ar
   3    1   32 1
   4    2    3 ar
   5    2   33 1
   6    3    4 ar
   7    3   34 1
   8    4    5 ar
   9    4    7 ar
  10    5    6 ar
  11    5   10 ar
  12    6   35 1
  13    7    8 ar
  14    7   15 1
  15    8    9 ar
  16    8   36 1
  17    9   10 ar
  18    9   11 1
  19   10   14 1
  20   11   12 am
  21   11   22 2
  22   12   13 1
  23   12   24 1
  24   13   14 2
  25   13   37 1
  26   15   16 1
  27   15   38 1
  28   15   39 1
  29   16   17 ar
  30   16   21 ar
  31   17   18 ar
  32   17   40 1
  33   18   19 ar
  34   18   41 1
  35   19   20 ar
  36   19   23 1
  37   20   21 ar
  38   20   42 1
  39   21   43 1
  40   24   25 1
  41   24   29 1
  42   24   44 1
  43   25   26 1
  44   25   30 1
  45   25   45 1
  46   26   27 1
  47   26   46 1
  48   26   47 1
  49   27   28 1
  50   27   48 1
  51   27   49 1
  52   28   29 1
  53   28   50 1
  54   28   51 1
  55   29   52 1
  56   29   53 1
  57   30   31 1
  58   31   54 1
  59   31   55 1
  60   31   56 1

#	End of record

