#	Name: ASD01152505
#	Creating user name:	WinNT
#	Creation time:	15. 06. 2019 19:05

#	Modifying user name:	WinNT
#	Modification time:	15. 06. 2019 19:05

#	Program:	/corina/corina34_cracker 3.40 0067  02.08.2006

@<TRIPOS>MOLECULE
ASD01152505
  43   45    0    0    0
SMALL
NO_CHARGES


@<TRIPOS>ATOM
   1 C1            -0.0156     1.3021     0.0092 C.2     
   2 N2             0.0021    -0.0041     0.0020 N.2     
   3 N3            -1.1757    -0.7510    -0.0144 N.am    
   4 C4            -2.3795    -0.1973    -0.2354 C.2     
   5 C5            -2.4905     1.2643    -0.6005 C.3     
   6 C6            -1.3161     1.9887     0.0315 C.2     
   7 C7            -2.4464     1.4231    -2.1216 C.3     
   8 O8            -1.4447     3.0893     0.5267 O.2     
   9 C9            -1.1003    -2.1313     0.2075 C.ar    
  10 O10           -3.3814    -0.8739    -0.1417 O.2     
  11 C11           -2.6805     2.8673    -2.4828 C.ar    
  12 C12           -0.2702    -2.9179    -0.5803 C.ar    
  13 C13           -1.8514    -2.7150     1.2199 C.ar    
  14 C14           -1.7753    -4.0763     1.4373 C.ar    
  15 C15           -0.9503    -4.8598     0.6472 C.ar    
  16 C16           -0.1971    -4.2793    -0.3593 C.ar    
  17 C17           -1.6094     3.7344    -2.5929 C.ar    
  18 C18           -1.8234     5.0590    -2.9242 C.ar    
  19 C19           -3.1099     5.5172    -3.1457 C.ar    
  20 C20           -4.1815     4.6490    -3.0354 C.ar    
  21 C21           -3.9657     3.3233    -2.7096 C.ar    
  22 F22           -0.8769    -6.1916     0.8619 F       
  23 Cl23          -3.3796     7.1811    -3.5613 Cl      
  24 C24            0.5498    -2.2867    -1.6759 C.3     
  25 C25            1.8083    -1.7718    -1.1122 C.1     
  26 N26            2.7795    -1.3744    -0.6771 N.1     
  27 O27            1.1433     2.0116     0.0019 O.3     
  28 C28            2.3613     1.2645    -0.0137 C.3     
  29 H29           -3.4244     1.6716    -0.2131 H       
  30 H30           -1.4701     1.1097    -2.4914 H       
  31 H31           -3.2219     0.8051    -2.5741 H       
  32 H32           -2.4942    -2.1044     1.8366 H       
  33 H33           -2.3591    -4.5306     2.2242 H       
  34 H34            0.4481    -4.8915    -0.9720 H       
  35 H35           -0.6052     3.3767    -2.4196 H       
  36 H36           -0.9866     5.7364    -3.0098 H       
  37 H37           -5.1860     5.0061    -3.2082 H       
  38 H38           -4.8020     2.6454    -2.6234 H       
  39 H39            0.7718    -3.0325    -2.4392 H       
  40 H40           -0.0111    -1.4657    -2.1224 H       
  41 H41            2.3938     0.6413    -0.9074 H       
  42 H42            3.2083     1.9505    -0.0181 H       
  43 H43            2.4108     0.6317     0.8725 H       
@<TRIPOS>BOND
   1    1    2 2
   2    1   27 1
   3    1    6 1
   4    2    3 1
   5    3    4 am
   6    3    9 1
   7    4    5 1
   8    4   10 2
   9    5    6 1
  10    5    7 1
  11    5   29 1
  12    6    8 2
  13    7   11 1
  14    7   30 1
  15    7   31 1
  16    9   12 ar
  17    9   13 ar
  18   11   17 ar
  19   11   21 ar
  20   12   16 ar
  21   12   24 1
  22   13   14 ar
  23   13   32 1
  24   14   15 ar
  25   14   33 1
  26   15   16 ar
  27   15   22 1
  28   16   34 1
  29   17   18 ar
  30   17   35 1
  31   18   19 ar
  32   18   36 1
  33   19   20 ar
  34   19   23 1
  35   20   21 ar
  36   20   37 1
  37   21   38 1
  38   24   25 1
  39   24   39 1
  40   24   40 1
  41   25   26 3
  42   27   28 1
  43   28   41 1
  44   28   42 1
  45   28   43 1

#	End of record

