#	Name: ASD05740153
#	Creating user name:	WinNT
#	Creation time:	15. 06. 2019 21:02

#	Modifying user name:	WinNT
#	Modification time:	15. 06. 2019 21:02

#	Program:	/corina/corina34_cracker 3.40 0067  02.08.2006

@<TRIPOS>MOLECULE
ASD05740153
  58   62    0    0    0
SMALL
NO_CHARGES


@<TRIPOS>ATOM
   1 C1             1.0505    -1.0660    -0.1795 C.3     
   2 N2             0.1648    -0.3839     0.7743 N.3     
   3 C3            -1.1531    -0.8371     0.6472 C.ar    
   4 C4            -2.1488    -0.3145     1.4622 C.ar    
   5 C5            -3.4490    -0.7617     1.3368 C.ar    
   6 C6            -3.7611    -1.7344     0.3960 C.ar    
   7 C7            -2.7654    -2.2573    -0.4186 C.ar    
   8 C8            -1.4663    -1.8054    -0.2978 C.ar    
   9 N9            -5.0801    -2.1884     0.2692 N.pl3   
  10 C10           -6.1326    -1.3143     0.4588 C.ar    
  11 N11           -5.8675    -0.0261     0.6474 N.ar    
  12 N12           -7.3685    -1.7913     0.4405 N.ar    
  13 C13           -8.4034    -0.9806     0.6192 C.ar    
  14 C14           -8.1595     0.3948     0.8282 C.ar    
  15 C15           -6.8368     0.8518     0.8335 C.ar    
  16 N16           -9.6935    -1.4442     0.6051 N.am    
  17 C17          -10.7309    -0.6080     0.7875 C.2     
  18 C18          -10.5439     0.7728     0.9996 C.2     
  19 C19           -9.2903     1.2965     1.0260 C.2     
  20 C20           -9.9457    -2.8709     0.3878 C.3     
  21 O21          -11.8640    -1.0565     0.7686 O.2     
  22 C22           -9.9709    -4.9787     1.7378 C.ar    
  23 C23           -9.8750    -3.5999     1.7048 C.ar    
  24 C24           -9.9061    -5.6473     2.9457 C.ar    
  25 C25           -9.7454    -4.9372     4.1211 C.ar    
  26 C26           -9.6491    -3.5588     4.0881 C.ar    
  27 C27           -9.7139    -2.8901     2.8798 C.ar    
  28 C28          -10.1523    -5.7522     0.4572 C.3     
  29 F29          -10.3035    -7.1117     0.7510 F       
  30 F30          -11.2919    -5.2897    -0.2095 F       
  31 F31           -9.0300    -5.5734    -0.3586 F       
  32 C32            0.6491    -0.5523     2.1515 C.3     
  33 C33            2.0612     0.0264     2.2672 C.3     
  34 N34            2.9470    -0.6557     1.3134 N.3     
  35 C35            2.4627    -0.4873    -0.0638 C.3     
  36 H36            1.0750    -2.1323     0.0454 H       
  37 H37            0.6780    -0.9162    -1.1929 H       
  38 H38           -1.9060     0.4414     2.1943 H       
  39 H39           -4.2233    -0.3554     1.9706 H       
  40 H40           -3.0080    -3.0142    -1.1498 H       
  41 H41           -0.6920    -2.2120    -0.9314 H       
  42 H42           -5.2544    -3.1166     0.0481 H       
  43 H43           -6.6136     1.8967     0.9907 H       
  44 H44          -11.3994     1.4165     1.1420 H       
  45 H45           -9.1346     2.3528     1.1880 H       
  46 H46          -10.9362    -3.0026    -0.0477 H       
  47 H47           -9.1939    -3.2735    -0.2911 H       
  48 H48           -9.9813    -6.7244     2.9715 H       
  49 H49           -9.6954    -5.4596     5.0650 H       
  50 H50           -9.5236    -3.0042     5.0062 H       
  51 H51           -9.6390    -1.8130     2.8540 H       
  52 H52           -0.0161    -0.0280     2.8376 H       
  53 H53            0.6689    -1.6128     2.4029 H       
  54 H54            2.0368     1.0926     2.0423 H       
  55 H55            2.4338    -0.1234     3.2805 H       
  56 H56            3.8972    -0.3290     1.4050 H       
  57 H57            3.1279    -1.0116    -0.7499 H       
  58 H58            2.4428     0.5731    -0.3152 H       
@<TRIPOS>BOND
   1    1    2 1
   2    1   35 1
   3    1   36 1
   4    1   37 1
   5    2    3 1
   6    2   32 1
   7    3    4 ar
   8    3    8 ar
   9    4    5 ar
  10    4   38 1
  11    5    6 ar
  12    5   39 1
  13    6    7 ar
  14    6    9 1
  15    7    8 ar
  16    7   40 1
  17    8   41 1
  18    9   10 1
  19    9   42 1
  20   10   11 ar
  21   10   12 ar
  22   11   15 ar
  23   12   13 ar
  24   13   14 ar
  25   13   16 1
  26   14   15 ar
  27   14   19 1
  28   15   43 1
  29   16   17 am
  30   16   20 1
  31   17   18 1
  32   17   21 2
  33   18   19 2
  34   18   44 1
  35   19   45 1
  36   20   23 1
  37   20   46 1
  38   20   47 1
  39   22   23 ar
  40   22   24 ar
  41   22   28 1
  42   23   27 ar
  43   24   25 ar
  44   24   48 1
  45   25   26 ar
  46   25   49 1
  47   26   27 ar
  48   26   50 1
  49   27   51 1
  50   28   29 1
  51   28   30 1
  52   28   31 1
  53   32   33 1
  54   32   52 1
  55   32   53 1
  56   33   34 1
  57   33   54 1
  58   33   55 1
  59   34   35 1
  60   34   56 1
  61   35   57 1
  62   35   58 1

#	End of record

