#	Name: ASD04122044
#	Creating user name:	WinNT
#	Creation time:	15. 06. 2019 20:48

#	Modifying user name:	WinNT
#	Modification time:	15. 06. 2019 20:48

#	Program:	/corina/corina34_cracker 3.40 0067  02.08.2006

@<TRIPOS>MOLECULE
ASD04122044
  74   78    0    0    0
SMALL
NO_CHARGES


@<TRIPOS>ATOM
   1 C1            -2.1091    -0.4053    -1.3150 C.ar    
   2 C2            -3.1459    -1.0010    -2.0400 C.ar    
   3 N3            -4.4329    -0.4461    -2.1029 N.pl3   
   4 C4            -4.8196     0.8698    -2.0732 C.2     
   5 C5            -4.0454     2.0277    -1.8227 C.2     
   6 C6            -2.6133     1.9272    -1.4422 C.3     
   7 O7            -2.3263     0.7678    -0.7009 O.3     
   8 C8            -5.5523    -1.2154    -2.2517 C.2     
   9 C9            -6.6305    -0.4093    -2.3907 C.2     
  10 C10           -6.1937     0.9097    -2.2902 C.2     
  11 C11           -0.8657    -1.0142    -1.2599 C.ar    
  12 C12           -0.6398    -2.2008    -1.9301 C.ar    
  13 C13           -1.6580    -2.7857    -2.6607 C.ar    
  14 C14           -2.9020    -2.1915    -2.7162 C.ar    
  15 C15           -1.7761     1.9226    -2.6952 C.ar    
  16 C16           -0.4385     1.5796    -2.6314 C.ar    
  17 C17            0.3296     1.5754    -3.7808 C.ar    
  18 C18           -0.2402     1.9137    -4.9940 C.ar    
  19 C19           -1.5780     2.2557    -5.0579 C.ar    
  20 C20           -2.3470     2.2558    -3.9092 C.ar    
  21 O21           -4.5611     3.1229    -1.9209 O.2     
  22 C22           -2.2408     3.1527    -0.6054 C.3     
  23 C23           -3.0539     3.1516     0.6907 C.3     
  24 C24            0.5974     1.9100    -6.2468 C.3     
  25 O25            0.5423     0.6171    -6.8528 O.3     
  26 C26            1.2488     0.4431    -8.0007 C.ar    
  27 C27            1.9799     1.4950    -8.5327 C.ar    
  28 C28            2.6973     1.3155    -9.6998 C.ar    
  29 C29            2.6868     0.0889   -10.3372 C.ar    
  30 C30            1.9584    -0.9613    -9.8091 C.ar    
  31 C31            1.2445    -0.7888    -8.6393 C.ar    
  32 C32            1.9488    -2.2969   -10.5069 C.3     
  33 C33            3.0948    -3.1591    -9.9736 C.3     
  34 N34            3.0855    -4.4611   -10.6538 N.3     
  35 C35            4.3020    -5.2247   -10.3458 C.3     
  36 C36            1.8810    -5.2275   -10.3074 C.3     
  37 C37            5.4767    -4.6567   -11.1447 C.3     
  38 C38            1.6925    -6.3640   -11.3143 C.3     
  39 H39           -5.5733    -2.2951    -2.2577 H       
  40 H40           -7.6489    -0.7314    -2.5508 H       
  41 H41           -6.8061     1.7960    -2.3659 H       
  42 H42           -0.0691    -0.5587    -0.6904 H       
  43 H43            0.3313    -2.6711    -1.8839 H       
  44 H44           -1.4788    -3.7100    -3.1897 H       
  45 H45           -3.6921    -2.6543    -3.2889 H       
  46 H46            0.0066     1.3154    -1.6836 H       
  47 H47            1.3748     1.3082    -3.7308 H       
  48 H48           -2.0230     2.5204    -6.0057 H       
  49 H49           -3.3923     2.5230    -3.9592 H       
  50 H50           -1.1776     3.1205    -0.3673 H       
  51 H51           -2.4592     4.0587    -1.1706 H       
  52 H52           -2.8354     2.2456     1.2559 H       
  53 H53           -2.7885     4.0247     1.2869 H       
  54 H54           -4.1171     3.1839     0.4526 H       
  55 H55            0.2122     2.6545    -6.9435 H       
  56 H56            1.6303     2.1491    -5.9940 H       
  57 H57            1.9880     2.4535    -8.0352 H       
  58 H58            3.2664     2.1343   -10.1146 H       
  59 H59            3.2483    -0.0494   -11.2494 H       
  60 H60            0.6761    -1.6093    -8.2270 H       
  61 H61            0.9993    -2.7981   -10.3192 H       
  62 H62            2.0751    -2.1476   -11.5792 H       
  63 H63            4.0443    -2.6579   -10.1613 H       
  64 H64            2.9685    -3.3085    -8.9013 H       
  65 H65            4.5176    -5.1502    -9.2799 H       
  66 H66            4.1522    -6.2706   -10.6139 H       
  67 H67            1.9908    -5.6438    -9.3060 H       
  68 H68            1.0119    -4.5702   -10.3344 H       
  69 H69            6.3527    -5.2895   -11.0024 H       
  70 H70            5.2167    -4.6287   -12.2029 H       
  71 H71            5.6976    -3.6472   -10.7980 H       
  72 H72            0.7359    -6.8544   -11.1337 H       
  73 H73            1.7079    -5.9591   -12.3262 H       
  74 H74            2.4992    -7.0880   -11.2002 H       
@<TRIPOS>BOND
   1    1    2 ar
   2    1   11 ar
   3    1    7 1
   4    2    3 1
   5    2   14 ar
   6    3    8 1
   7    3    4 1
   8    4    5 1
   9    4   10 2
  10    5   21 2
  11    5    6 1
  12    6    7 1
  13    6   15 1
  14    6   22 1
  15    8    9 2
  16    8   39 1
  17    9   10 1
  18    9   40 1
  19   10   41 1
  20   11   12 ar
  21   11   42 1
  22   12   13 ar
  23   12   43 1
  24   13   14 ar
  25   13   44 1
  26   14   45 1
  27   15   16 ar
  28   15   20 ar
  29   16   17 ar
  30   16   46 1
  31   17   18 ar
  32   17   47 1
  33   18   19 ar
  34   18   24 1
  35   19   20 ar
  36   19   48 1
  37   20   49 1
  38   22   23 1
  39   22   50 1
  40   22   51 1
  41   23   52 1
  42   23   53 1
  43   23   54 1
  44   24   25 1
  45   24   55 1
  46   24   56 1
  47   25   26 1
  48   26   27 ar
  49   26   31 ar
  50   27   28 ar
  51   27   57 1
  52   28   29 ar
  53   28   58 1
  54   29   30 ar
  55   29   59 1
  56   30   31 ar
  57   30   32 1
  58   31   60 1
  59   32   33 1
  60   32   61 1
  61   32   62 1
  62   33   34 1
  63   33   63 1
  64   33   64 1
  65   34   35 1
  66   34   36 1
  67   35   37 1
  68   35   65 1
  69   35   66 1
  70   36   38 1
  71   36   67 1
  72   36   68 1
  73   37   69 1
  74   37   70 1
  75   37   71 1
  76   38   72 1
  77   38   73 1
  78   38   74 1

#	End of record

