#	Name: ASD03540273
#	Creating user name:	WinNT
#	Creation time:	15. 06. 2019 20:42

#	Modifying user name:	WinNT
#	Modification time:	15. 06. 2019 20:42

#	Program:	/corina/corina34_cracker 3.40 0067  02.08.2006

@<TRIPOS>MOLECULE
ASD03540273
  57   60    0    0    0
SMALL
NO_CHARGES


@<TRIPOS>ATOM
   1 S1            -0.0207     1.6762     0.0113 S.o2    
   2 N2             0.0021    -0.0041     0.0020 N.am    
   3 C3             1.2387    -0.5546    -0.0127 C.2     
   4 N4             2.3901     0.0976    -0.0198 N.am    
   5 C5             2.6568     1.4537    -0.0150 C.ar    
   6 C6             1.6079     2.3816    -0.0005 C.ar    
   7 C7             3.9650     1.9318    -0.0239 C.ar    
   8 C8             4.2047     3.2871    -0.0184 C.ar    
   9 C9             3.1467     4.1998    -0.0038 C.ar    
  10 C10            1.8265     3.7244     0.0046 C.ar    
  11 C11            3.4155     5.6510     0.0025 C.2     
  12 O12            2.4909     6.4404     0.0153 O.2     
  13 N13            4.6858     6.1011    -0.0059 N.am    
  14 C14            4.9526     7.5416     0.0004 C.3     
  15 O15            1.2974    -1.7690    -0.0198 O.2     
  16 O16           -0.6091     2.0558    -1.2252 O.2     
  17 O17           -0.5853     2.0425     1.2628 O.2     
  18 C18            3.5783    -0.7592    -0.0348 C.3     
  19 C19           -1.2211    -0.8103     0.0098 C.3     
  20 C20           -1.5864    -1.1826    -1.4040 C.ar    
  21 C21            6.4411     7.7768    -0.0112 C.ar    
  22 C22            7.1123     7.8917    -1.2145 C.ar    
  23 C23            8.4768     8.1074    -1.2278 C.ar    
  24 C24            9.1735     8.2087    -0.0324 C.ar    
  25 C25            8.4977     8.0931     1.1736 C.ar    
  26 C26            7.1323     7.8831     1.1816 C.ar    
  27 O27           10.5159     8.4204    -0.0429 O.3     
  28 C28           11.1677     8.5142     1.2253 C.3     
  29 C29           -1.0944    -2.3514    -1.9574 C.ar    
  30 C30           -1.4251    -2.6985    -3.2509 C.ar    
  31 C31           -2.2584    -1.8671    -4.0020 C.ar    
  32 C32           -2.7514    -0.6891    -3.4373 C.ar    
  33 C33           -2.4168    -0.3568    -2.1409 C.ar    
  34 C34           -2.6056    -2.2209    -5.3455 C.1     
  35 N35           -2.8809    -2.5015    -6.4113 N.1     
  36 H36            4.7926     1.2379    -0.0349 H       
  37 H37            5.2222     3.6493    -0.0251 H       
  38 H38            0.9959     4.4146     0.0163 H       
  39 H39            5.4235     5.4712    -0.0160 H       
  40 H40            4.5058     7.9976    -0.8831 H       
  41 H41            4.5213     7.9871     0.8968 H       
  42 H42            3.2719    -1.8053    -0.0373 H       
  43 H43            4.1655    -0.5505    -0.9291 H       
  44 H44            4.1815    -0.5594     0.8508 H       
  45 H45           -1.0553    -1.7163     0.5928 H       
  46 H46           -2.0326    -0.2350     0.4553 H       
  47 H47            6.5695     7.8124    -2.1448 H       
  48 H48            9.0007     8.1967    -2.1680 H       
  49 H49            9.0378     8.1716     2.1055 H       
  50 H50            6.6057     7.7930     2.1202 H       
  51 H51           10.7447     9.3444     1.7908 H       
  52 H52           11.0219     7.5862     1.7783 H       
  53 H53           12.2339     8.6833     1.0742 H       
  54 H54           -0.4496    -2.9933    -1.3754 H       
  55 H55           -1.0401    -3.6109    -3.6817 H       
  56 H56           -3.3961    -0.0414    -4.0128 H       
  57 H57           -2.7974     0.5540    -1.7028 H       
@<TRIPOS>BOND
   1    1    2 am
   2    1    6 1
   3    1   16 2
   4    1   17 2
   5    2    3 am
   6    2   19 1
   7    3    4 am
   8    3   15 2
   9    4    5 1
  10    4   18 1
  11    5    6 ar
  12    5    7 ar
  13    6   10 ar
  14    7    8 ar
  15    7   36 1
  16    8    9 ar
  17    8   37 1
  18    9   10 ar
  19    9   11 1
  20   10   38 1
  21   11   12 2
  22   11   13 am
  23   13   14 1
  24   13   39 1
  25   14   21 1
  26   14   40 1
  27   14   41 1
  28   18   42 1
  29   18   43 1
  30   18   44 1
  31   19   20 1
  32   19   45 1
  33   19   46 1
  34   20   29 ar
  35   20   33 ar
  36   21   22 ar
  37   21   26 ar
  38   22   23 ar
  39   22   47 1
  40   23   24 ar
  41   23   48 1
  42   24   25 ar
  43   24   27 1
  44   25   26 ar
  45   25   49 1
  46   26   50 1
  47   27   28 1
  48   28   51 1
  49   28   52 1
  50   28   53 1
  51   29   30 ar
  52   29   54 1
  53   30   31 ar
  54   30   55 1
  55   31   32 ar
  56   31   34 1
  57   32   33 ar
  58   32   56 1
  59   33   57 1
  60   34   35 3

#	End of record

