#	Name: ASD03330316
#	Creating user name:	WinNT
#	Creation time:	15. 06. 2019 20:37

#	Modifying user name:	WinNT
#	Modification time:	15. 06. 2019 20:37

#	Program:	/corina/corina34_cracker 3.40 0067  02.08.2006

@<TRIPOS>MOLECULE
ASD03330316
  60   63    0    0    0
SMALL
NO_CHARGES


@<TRIPOS>ATOM
   1 C1            -0.0179     1.4666     0.0101 C.3     
   2 N2             0.0021    -0.0041     0.0020 N.am    
   3 C3             0.5791    -0.6826    -1.1742 C.3     
   4 C4             1.8395     0.0634    -1.5376 C.2     
   5 N5             2.1950     1.2602    -1.0064 N.pl3   
   6 C6             1.4218     1.9926    -0.0008 C.3     
   7 C7             2.8088    -0.2954    -2.4175 C.2     
   8 N8             3.7410     0.6841    -2.4213 N.2     
   9 C9             3.3779     1.6226    -1.5775 C.2     
  10 C10            4.1276     2.8665    -1.2948 C.ar    
  11 C11            5.1488     3.2788    -2.1513 C.ar    
  12 C12            2.8399    -1.5294    -3.2224 C.2     
  13 O13            1.9371    -2.3390    -3.1295 O.2     
  14 C14            3.8999    -2.9876    -4.8617 C.3     
  15 N15            3.8689    -1.7608    -4.0615 N.am    
  16 C16            5.1647    -3.0033    -5.7224 C.3     
  17 S17           -0.6044    -0.8723     1.2751 S.o2    
  18 C18            5.8439     4.4400    -1.8824 C.ar    
  19 C19            5.5301     5.1948    -0.7663 C.ar    
  20 C20            4.5186     4.7912     0.0869 C.ar    
  21 C21            3.8125     3.6348    -0.1738 C.ar    
  22 C22            6.3977    -2.9531    -4.8180 C.3     
  23 C23            5.1971    -4.2845    -6.5581 C.3     
  24 C24            5.1642    -1.7880    -6.6520 C.3     
  25 O25           -0.5560    -0.0132     2.4060 O.2     
  26 C26           -2.3104    -1.1622     0.9431 C.ar    
  27 O27            0.0335    -2.1414     1.2354 O.2     
  28 C28           -2.6972    -2.2953     0.2523 C.ar    
  29 C29           -4.0356    -2.5228    -0.0082 C.ar    
  30 C30           -4.6008    -0.4867     1.1176 C.ar    
  31 C31           -3.2624    -0.2594     1.3785 C.ar    
  32 C32           -4.9872    -1.6174     0.4226 C.ar    
  33 H33           -0.5441     1.8282    -0.8733 H       
  34 H34           -0.5271     1.8186     0.9072 H       
  35 H35            0.8171    -1.7172    -0.9273 H       
  36 H36           -0.1254    -0.6499    -2.0053 H       
  37 H37            1.4195     3.0547    -0.2457 H       
  38 H38            1.8705     1.8456     0.9816 H       
  39 H39            5.3949     2.6903    -3.0227 H       
  40 H40            3.9003    -3.8534    -4.1995 H       
  41 H41            3.0214    -3.0234    -5.5060 H       
  42 H42            4.5889    -1.1151    -4.1357 H       
  43 H43            6.6348     4.7601    -2.5445 H       
  44 H44            6.0774     6.1027    -0.5599 H       
  45 H45            4.2784     5.3848     0.9566 H       
  46 H46            3.0231     3.3208     0.4930 H       
  47 H47            6.3981    -3.8189    -4.1558 H       
  48 H48            7.2988    -2.9642    -5.4312 H       
  49 H49            6.3747    -2.0403    -4.2227 H       
  50 H50            4.3186    -4.3203    -7.2024 H       
  51 H51            6.0981    -4.2957    -7.1713 H       
  52 H52            5.1975    -5.1503    -5.8959 H       
  53 H53            5.1411    -0.8753    -6.0566 H       
  54 H54            6.0652    -1.7992    -7.2652 H       
  55 H55            4.2857    -1.8238    -7.2963 H       
  56 H56           -1.9537    -3.0027    -0.0843 H       
  57 H57           -4.3378    -3.4077    -0.5486 H       
  58 H58           -5.3446     0.2186     1.4578 H       
  59 H59           -2.9604     0.6241     1.9212 H       
  60 H60           -6.0328    -1.7949     0.2187 H       
@<TRIPOS>BOND
   1    1    2 1
   2    1    6 1
   3    1   33 1
   4    1   34 1
   5    2    3 1
   6    2   17 am
   7    3    4 1
   8    3   35 1
   9    3   36 1
  10    4    5 1
  11    4    7 2
  12    5    6 1
  13    5    9 1
  14    6   37 1
  15    6   38 1
  16    7    8 1
  17    7   12 1
  18    8    9 2
  19    9   10 1
  20   10   11 ar
  21   10   21 ar
  22   11   18 ar
  23   11   39 1
  24   12   13 2
  25   12   15 am
  26   14   15 1
  27   14   16 1
  28   14   40 1
  29   14   41 1
  30   15   42 1
  31   16   22 1
  32   16   23 1
  33   16   24 1
  34   17   25 2
  35   17   26 1
  36   17   27 2
  37   18   19 ar
  38   18   43 1
  39   19   20 ar
  40   19   44 1
  41   20   21 ar
  42   20   45 1
  43   21   46 1
  44   22   47 1
  45   22   48 1
  46   22   49 1
  47   23   50 1
  48   23   51 1
  49   23   52 1
  50   24   53 1
  51   24   54 1
  52   24   55 1
  53   26   28 ar
  54   26   31 ar
  55   28   29 ar
  56   28   56 1
  57   29   32 ar
  58   29   57 1
  59   30   31 ar
  60   30   32 ar
  61   30   58 1
  62   31   59 1
  63   32   60 1

#	End of record

