#	Name: ASD06620027
#	Creating user name:	WinNT
#	Creation time:	15. 06. 2019 21:07

#	Modifying user name:	WinNT
#	Modification time:	15. 06. 2019 21:07

#	Program:	/corina/corina34_cracker 3.40 0067  02.08.2006

@<TRIPOS>MOLECULE
ASD06620027
  59   62    0    0    0
SMALL
NO_CHARGES


@<TRIPOS>ATOM
   1 C1            -0.8593    -3.4845    -0.5147 C.ar    
   2 C2            -0.3578    -2.2155    -0.2682 C.ar    
   3 C3             1.0225    -2.0104    -0.2206 C.ar    
   4 C4             1.8862    -3.0766    -0.4206 C.ar    
   5 C5             1.3774    -4.3368    -0.6659 C.ar    
   6 C6             0.0087    -4.5403    -0.7122 C.ar    
   7 C7             0.0146    -0.0653     0.1468 C.2     
   8 N8            -0.9567    -0.9799    -0.0345 N.am    
   9 N9             1.2196    -0.6565     0.0404 N.am    
  10 O10           -0.1687     1.1164     0.3722 O.2     
  11 C11           -2.3978    -0.7196     0.0065 C.3     
  12 C12           -3.6664    -0.9021    -3.3858 C.2     
  13 C13           -4.1396    -1.4474    -4.5961 C.2     
  14 C14           -4.4756    -0.6130    -5.6165 C.2     
  15 C15           -4.3469     0.7759    -5.4507 C.2     
  16 C16           -3.8921     1.2834    -4.2858 C.2     
  17 N17           -3.5517     0.4576    -3.2539 N.pl3   
  18 N18           -3.2689    -1.4595    -2.2507 N.2     
  19 C19           -2.9088    -0.5006    -1.3942 C.2     
  20 C20           -3.0746     0.6985    -1.9942 C.2     
  21 C21           -2.7860     2.0485    -1.3900 C.3     
  22 C22           -4.0766     2.6373    -0.8169 C.3     
  23 C23           -3.7836     4.0080    -0.2035 C.3     
  24 C24            2.5168     0.0104     0.1765 C.3     
  25 C25            2.6410     1.1056    -0.8846 C.3     
  26 C26            2.6257     0.6348     1.5691 C.3     
  27 C27           -5.0742     4.5967     0.3696 C.3     
  28 C28           -5.5587     3.7282     1.5323 C.3     
  29 C29           -4.8081     6.0176     0.8708 C.3     
  30 H30           -1.9264    -3.6477    -0.5478 H       
  31 H31            2.9545    -2.9218    -0.3850 H       
  32 H32            2.0500    -5.1673    -0.8217 H       
  33 H33           -0.3817    -5.5288    -0.9039 H       
  34 H34           -2.9088    -1.5740     0.4503 H       
  35 H35           -2.5894     0.1701     0.6064 H       
  36 H36           -4.2341    -2.5169    -4.7124 H       
  37 H37           -4.8393    -1.0166    -6.5499 H       
  38 H38           -4.6130     1.4407    -6.2592 H       
  39 H39           -3.7967     2.3528    -4.1691 H       
  40 H40           -2.0507     1.9401    -0.5927 H       
  41 H41           -2.3930     2.7140    -2.1586 H       
  42 H42           -4.8119     2.7457    -1.6142 H       
  43 H43           -4.4696     1.9718    -0.0483 H       
  44 H44           -3.0483     3.8995     0.5938 H       
  45 H45           -3.3906     4.6735    -0.9721 H       
  46 H46            3.3160    -0.7185     0.0417 H       
  47 H47            1.8419     1.8345    -0.7497 H       
  48 H48            3.6062     1.6019    -0.7833 H       
  49 H49            2.5635     0.6608    -1.8767 H       
  50 H50            2.5372    -0.1455     2.3250 H       
  51 H51            3.5909     1.1310     1.6704 H       
  52 H52            1.8265     1.3636     1.7039 H       
  53 H53           -5.8382     4.6227    -0.4075 H       
  54 H54           -6.4782     4.1477     1.9406 H       
  55 H55           -5.7483     2.7159     1.1752 H       
  56 H56           -4.7948     3.7023     2.3093 H       
  57 H57           -4.4630     6.6364     0.0424 H       
  58 H58           -5.7276     6.4371     1.2791 H       
  59 H59           -4.0442     5.9917     1.6478 H       
@<TRIPOS>BOND
   1    1    2 ar
   2    1    6 ar
   3    1   30 1
   4    2    3 ar
   5    2    8 1
   6    3    4 ar
   7    3    9 1
   8    4    5 ar
   9    4   31 1
  10    5    6 ar
  11    5   32 1
  12    6   33 1
  13    7    8 am
  14    7    9 am
  15    7   10 2
  16    8   11 1
  17    9   24 1
  18   11   19 1
  19   11   34 1
  20   11   35 1
  21   12   13 1
  22   12   17 1
  23   12   18 2
  24   13   14 2
  25   13   36 1
  26   14   15 1
  27   14   37 1
  28   15   16 2
  29   15   38 1
  30   16   17 1
  31   16   39 1
  32   17   20 1
  33   18   19 1
  34   19   20 2
  35   20   21 1
  36   21   22 1
  37   21   40 1
  38   21   41 1
  39   22   23 1
  40   22   42 1
  41   22   43 1
  42   23   27 1
  43   23   44 1
  44   23   45 1
  45   24   25 1
  46   24   26 1
  47   24   46 1
  48   25   47 1
  49   25   48 1
  50   25   49 1
  51   26   50 1
  52   26   51 1
  53   26   52 1
  54   27   28 1
  55   27   29 1
  56   27   53 1
  57   28   54 1
  58   28   55 1
  59   28   56 1
  60   29   57 1
  61   29   58 1
  62   29   59 1

#	End of record

