#	Name: ASD01200343
#	Creating user name:	WinNT
#	Creation time:	15. 06. 2019 19:09

#	Modifying user name:	WinNT
#	Modification time:	15. 06. 2019 19:09

#	Program:	/corina/corina34_cracker 3.40 0067  02.08.2006

@<TRIPOS>MOLECULE
ASD01200343
  68   71    0    0    0
SMALL
NO_CHARGES


@<TRIPOS>ATOM
   1 C1             2.0259     0.9695     5.7066 C.2     
   2 C2             1.8413    -0.3307     4.9674 C.3     
   3 C3             3.1818    -1.0633     4.8817 C.3     
   4 O4             3.1175     1.2785     6.1222 O.2     
   5 O5             0.9786     1.7870     5.8984 O.3     
   6 C6             4.0550    -3.1455     3.9656 C.2     
   7 C7             3.8739    -4.4211     3.2404 C.ar    
   8 C8             4.9620    -5.2707     3.0342 C.ar    
   9 C9             4.7861    -6.4597     2.3571 C.ar    
  10 C10            3.5347    -6.8105     1.8824 C.ar    
  11 C11            2.4520    -5.9729     2.0835 C.ar    
  12 C12            2.6131    -4.7837     2.7640 C.ar    
  13 O13            5.1532    -2.8347     4.3837 O.2     
  14 N14            3.0024    -2.3273     4.1630 N.am    
  15 C15            3.3503    -8.1105     1.1428 C.3     
  16 O16            2.0658    -8.6557     1.4509 O.3     
  17 C17            1.9913   -10.0026     1.6190 C.ar    
  18 C18            0.8027   -10.5848     2.0354 C.ar    
  19 C19            0.7264   -11.9528     2.2059 C.ar    
  20 C20            1.8392   -12.7458     1.9606 C.ar    
  21 C21            3.0283   -12.1628     1.5439 C.ar    
  22 C22            3.1021   -10.7953     1.3686 C.ar    
  23 N23            1.7622   -14.1359     2.1341 N.pl3   
  24 N24            1.3439   -14.8000     3.2944 N.2     
  25 C25            1.4077   -16.0886     3.0739 C.2     
  26 C26            1.8680   -16.2871     1.7678 C.2     
  27 C27            2.0731   -15.0716     1.2091 C.2     
  28 C28            2.0900   -17.6192     1.0989 C.3     
  29 F29            1.7628   -18.6480     1.9886 F       
  30 F30            1.2800   -17.7107    -0.0381 F       
  31 F31            3.4331   -17.7352     0.7252 F       
  32 C32            4.2366   -13.0231     1.2774 C.3     
  33 C33           -0.5645   -12.5849     2.6587 C.3     
  34 C34            3.4497    -7.8591    -0.3631 C.3     
  35 C35            3.2744    -9.1289    -1.2126 C.3     
  36 C36            2.4515    -8.2691    -2.1864 C.3     
  37 C37            2.1402    -7.3531    -0.9909 C.3     
  38 C38            1.2300     3.0225     6.6186 C.3     
  39 H39            1.1210    -0.9521     5.4994 H       
  40 H40            1.4732    -0.1278     3.9617 H       
  41 H41            3.9021    -0.4419     4.3496 H       
  42 H42            3.5499    -1.2662     5.8874 H       
  43 H43            5.9394    -4.9977     3.4035 H       
  44 H44            5.6272    -7.1180     2.1969 H       
  45 H45            1.4778    -6.2525     1.7104 H       
  46 H46            1.7663    -4.1328     2.9241 H       
  47 H47            2.1260    -2.5753     3.8294 H       
  48 H48            4.1258    -8.8141     1.4457 H       
  49 H49           -0.0628    -9.9678     2.2266 H       
  50 H50            4.0258   -10.3421     1.0402 H       
  51 H51            1.1497   -16.8650     3.7789 H       
  52 H52            2.4247   -14.8830     0.2055 H       
  53 H53            4.1873   -13.4140     0.2611 H       
  54 H54            5.1408   -12.4255     1.3933 H       
  55 H55            4.2556   -13.8520     1.9849 H       
  56 H56           -1.1233   -12.9325     1.7897 H       
  57 H57           -0.3459   -13.4298     3.3118 H       
  58 H58           -1.1581   -11.8498     3.2021 H       
  59 H59            4.3236    -7.2679    -0.6367 H       
  60 H60            4.2060    -9.5011    -1.6389 H       
  61 H61            2.6928    -9.9075    -0.7191 H       
  62 H62            3.0517    -7.7892    -2.9594 H       
  63 H63            1.5748    -8.7792    -2.5855 H       
  64 H64            1.2485    -7.6463    -0.4369 H       
  65 H65            2.1562    -6.2917    -1.2384 H       
  66 H66            1.6079     2.7919     7.6147 H       
  67 H67            1.9685     3.6144     6.0779 H       
  68 H68            0.3024     3.5885     6.7040 H       
@<TRIPOS>BOND
   1    1    2 1
   2    1    4 2
   3    1    5 1
   4    2    3 1
   5    2   39 1
   6    2   40 1
   7    3   14 1
   8    3   41 1
   9    3   42 1
  10    5   38 1
  11    6    7 1
  12    6   13 2
  13    6   14 am
  14    7    8 ar
  15    7   12 ar
  16    8    9 ar
  17    8   43 1
  18    9   10 ar
  19    9   44 1
  20   10   11 ar
  21   10   15 1
  22   11   12 ar
  23   11   45 1
  24   12   46 1
  25   14   47 1
  26   15   16 1
  27   15   34 1
  28   15   48 1
  29   16   17 1
  30   17   18 ar
  31   17   22 ar
  32   18   19 ar
  33   18   49 1
  34   19   20 ar
  35   19   33 1
  36   20   21 ar
  37   20   23 1
  38   21   22 ar
  39   21   32 1
  40   22   50 1
  41   23   24 1
  42   23   27 1
  43   24   25 2
  44   25   26 1
  45   25   51 1
  46   26   27 2
  47   26   28 1
  48   27   52 1
  49   28   29 1
  50   28   30 1
  51   28   31 1
  52   32   53 1
  53   32   54 1
  54   32   55 1
  55   33   56 1
  56   33   57 1
  57   33   58 1
  58   34   35 1
  59   34   37 1
  60   34   59 1
  61   35   36 1
  62   35   60 1
  63   35   61 1
  64   36   37 1
  65   36   62 1
  66   36   63 1
  67   37   64 1
  68   37   65 1
  69   38   66 1
  70   38   67 1
  71   38   68 1

#	End of record

