#	Name: ASD07930851
#	Creating user name:	WinNT
#	Creation time:	15. 06. 2019 21:13

#	Modifying user name:	WinNT
#	Modification time:	15. 06. 2019 21:13

#	Program:	/corina/corina34_cracker 3.40 0067  02.08.2006

@<TRIPOS>MOLECULE
ASD07930851
  14   14    0    0    0
SMALL
NO_CHARGES


@<TRIPOS>ATOM
   1 C1            -0.0167     1.3798     0.0096 C.ar    
   2 C2             0.0021    -0.0041     0.0020 C.ar    
   3 C3             1.2212    -0.6625    -0.0131 C.ar    
   4 C4             2.3820     0.0970    -0.0201 C.ar    
   5 C5             2.2857     1.4750    -0.0118 C.ar    
   6 N6             1.1082     2.0694     0.0026 N.ar    
   7 Cl7           -1.5371     2.2175     0.0213 Cl      
   8 C8             1.2846    -2.1681    -0.0213 C.3     
   9 Br9            1.2941    -2.8135    -1.8784 Br      
  10 H10           -0.9216    -0.5636     0.0082 H       
  11 H11            3.3493    -0.3833    -0.0316 H       
  12 H12            3.1851     2.0728    -0.0172 H       
  13 H13            2.1940    -2.4962     0.4820 H       
  14 H14            0.4157    -2.5712     0.4989 H       
@<TRIPOS>BOND
   1    1    2 ar
   2    1    6 ar
   3    1    7 1
   4    2    3 ar
   5    2   10 1
   6    3    4 ar
   7    3    8 1
   8    4    5 ar
   9    4   11 1
  10    5    6 ar
  11    5   12 1
  12    8    9 1
  13    8   13 1
  14    8   14 1

#	End of record

