#	Name: ASD01883522
#	Creating user name:	WinNT
#	Creation time:	15. 06. 2019 19:46

#	Modifying user name:	WinNT
#	Modification time:	15. 06. 2019 19:46

#	Program:	/corina/corina34_cracker 3.40 0067  02.08.2006

@<TRIPOS>MOLECULE
ASD01883522
  57   60    0    0    0
SMALL
NO_CHARGES


@<TRIPOS>ATOM
   1 N1             0.0020     1.3083    -0.0152 N.am    
   2 C2            -0.7508     1.3811     1.0981 C.2     
   3 C3            -1.9987     0.7163     1.1507 C.2     
   4 C4            -2.4239    -0.0108     0.0261 C.2     
   5 C5            -1.5922    -0.0495    -1.1084 C.2     
   6 C6            -0.4127     0.6091    -1.1036 C.2     
   7 O7            -0.3577     2.0188     2.0603 O.2     
   8 C8            -2.8122     0.7828     2.3273 C.1     
   9 N9            -3.4576     0.8356     3.2607 N.1     
  10 C10            1.2918     2.0018    -0.0563 C.3     
  11 C11            2.3913     1.0641     0.4464 C.3     
  12 C12            3.7383     1.7884     0.4035 C.3     
  13 C13            4.8169     0.8965     1.0216 C.3     
  14 C14            4.1043     2.0992    -1.0492 C.3     
  15 N15           -3.6309    -0.6732     0.0341 N.pl3   
  16 C16           -4.8913     0.0711     0.1608 C.3     
  17 C17           -5.8096    -0.3142    -1.0042 C.3     
  18 C18           -5.9645    -1.8320    -1.0457 C.3     
  19 C19           -4.6099    -2.5051    -1.2469 C.3     
  20 C20           -3.6817    -2.1363    -0.0902 C.3     
  21 C21           -6.6093    -2.3292     0.2612 C.3     
  22 C22           -8.1107    -2.3486    -0.0998 C.3     
  23 C23           -8.1550    -2.5294    -1.6023 C.ar    
  24 C24           -6.9185    -2.2316    -2.1460 C.ar    
  25 C25           -9.1947    -2.9223    -2.4283 C.ar    
  26 C26           -9.0013    -3.0181    -3.7923 C.ar    
  27 C27           -7.7654    -2.7211    -4.3360 C.ar    
  28 C28           -6.7272    -2.3289    -3.5144 C.ar    
  29 H29           -1.8985    -0.6024    -1.9841 H       
  30 H30            0.2172     0.5722    -1.9801 H       
  31 H31            1.5106     2.3018    -1.0811 H       
  32 H32            1.2494     2.8859     0.5798 H       
  33 H33            2.1726     0.7642     1.4712 H       
  34 H34            2.4338     0.1800    -0.1897 H       
  35 H35            3.6688     2.7185     0.9676 H       
  36 H36            4.8864    -0.0336     0.4575 H       
  37 H37            5.7765     1.4125     0.9910 H       
  38 H38            4.5562     0.6751     2.0565 H       
  39 H39            4.1738     1.1691    -1.6133 H       
  40 H40            3.3359     2.7346    -1.4895 H       
  41 H41            5.0639     2.6152    -1.0798 H       
  42 H42           -5.3726    -0.1832     1.1052 H       
  43 H43           -4.6887     1.1416     0.1279 H       
  44 H44           -6.7871     0.1474    -0.8648 H       
  45 H45           -5.3735     0.0326    -1.9410 H       
  46 H46           -4.7423    -3.5866    -1.2779 H       
  47 H47           -4.1707    -2.1653    -2.1849 H       
  48 H48           -2.6815    -2.5225    -0.2867 H       
  49 H49           -4.0651    -2.5633     0.8365 H       
  50 H50           -6.2575    -3.3302     0.5108 H       
  51 H51           -6.4159    -1.6340     1.0781 H       
  52 H52           -8.6082    -3.1821     0.3963 H       
  53 H53           -8.5795    -1.4057     0.1817 H       
  54 H54          -10.1604    -3.1544    -2.0042 H       
  55 H55           -9.8144    -3.3249    -4.4334 H       
  56 H56           -7.6119    -2.7961    -5.4024 H       
  57 H57           -5.7623    -2.0967    -3.9404 H       
@<TRIPOS>BOND
   1    1    2 am
   2    1   10 1
   3    1    6 1
   4    2    3 1
   5    2    7 2
   6    3    4 2
   7    3    8 1
   8    4    5 1
   9    4   15 1
  10    5    6 2
  11    5   29 1
  12    6   30 1
  13    8    9 3
  14   10   11 1
  15   10   31 1
  16   10   32 1
  17   11   12 1
  18   11   33 1
  19   11   34 1
  20   12   13 1
  21   12   14 1
  22   12   35 1
  23   13   36 1
  24   13   37 1
  25   13   38 1
  26   14   39 1
  27   14   40 1
  28   14   41 1
  29   15   16 1
  30   15   20 1
  31   16   17 1
  32   16   42 1
  33   16   43 1
  34   17   18 1
  35   17   44 1
  36   17   45 1
  37   18   19 1
  38   18   21 1
  39   18   24 1
  40   19   20 1
  41   19   46 1
  42   19   47 1
  43   20   48 1
  44   20   49 1
  45   21   22 1
  46   21   50 1
  47   21   51 1
  48   22   23 1
  49   22   52 1
  50   22   53 1
  51   23   24 ar
  52   23   25 ar
  53   24   28 ar
  54   25   26 ar
  55   25   54 1
  56   26   27 ar
  57   26   55 1
  58   27   28 ar
  59   27   56 1
  60   28   57 1

#	End of record

