#	Name: ASD05380049
#	Creating user name:	WinNT
#	Creation time:	15. 06. 2019 20:59

#	Modifying user name:	WinNT
#	Modification time:	15. 06. 2019 20:59

#	Program:	/corina/corina34_cracker 3.40 0067  02.08.2006

@<TRIPOS>MOLECULE
ASD05380049
  62   67    0    0    0
SMALL
NO_CHARGES


@<TRIPOS>ATOM
   1 C1            -0.2265     1.5762    -0.3889 C.ar    
   2 C2            -0.0888     0.1888    -0.6182 C.ar    
   3 C3             0.7586     2.4574    -0.8291 C.ar    
   4 C4             1.8645     1.9655    -1.4878 C.ar    
   5 C5             2.0028     0.6028    -1.7152 C.ar    
   6 C6             1.0411    -0.2851    -1.2874 C.ar    
   7 C7             0.6157     3.9380    -0.5871 C.3     
   8 N8            -1.0604    -0.6504    -0.1801 N.2     
   9 C9            -2.1106    -0.2095     0.4430 C.2     
  10 N10           -2.3255     1.1079     0.7067 N.am    
  11 C11           -1.4244     2.0426     0.3243 C.2     
  12 C12           -3.4868     1.4997     1.3846 C.ar    
  13 C13           -4.6416     1.7958     0.6725 C.ar    
  14 C14           -3.4874     1.5873     2.7704 C.ar    
  15 C15           -4.6343     1.9735     3.4360 C.ar    
  16 C16           -5.7814     2.2723     2.7238 C.ar    
  17 C17           -5.7853     2.1814     1.3439 C.ar    
  18 C18           -3.1445    -1.2076     0.8970 C.3     
  19 N19           -3.2460    -2.2876    -0.0877 N.pl3   
  20 C20           -4.4161    -3.0187    -0.1947 C.ar    
  21 N21           -5.4572    -2.7542     0.5880 N.ar    
  22 O22           -1.6036     3.2246     0.5535 O.2     
  23 C23           -4.5332    -4.0541    -1.1372 C.ar    
  24 C24           -5.7460    -4.7612    -1.1989 C.ar    
  25 N25           -6.7305    -4.4282    -0.3708 N.ar    
  26 C26           -6.5776    -3.4465     0.4930 C.ar    
  27 N27           -3.7127    -4.5864    -2.0747 N.2     
  28 C28           -4.3296    -5.5514    -2.6927 C.2     
  29 N29           -5.5875    -5.6983    -2.1884 N.pl3   
  30 N30            1.0095     4.2488     0.7935 N.3     
  31 C31            1.1115     5.7010     0.9981 C.3     
  32 C32            1.4647     5.9813     2.4612 C.3     
  33 O33            2.6786     5.3014     2.7920 O.3     
  34 C34            2.6145     3.8850     2.6050 C.3     
  35 C35            2.2730     3.5835     1.1434 C.3     
  36 C36           -2.7323    -1.7888     2.2509 C.3     
  37 H37            2.6301     2.6458    -1.8305 H       
  38 H38            2.8757     0.2345    -2.2338 H       
  39 H39            1.1599    -1.3430    -1.4694 H       
  40 H40            1.2574     4.4829    -1.2795 H       
  41 H41           -0.4217     4.2333    -0.7442 H       
  42 H42           -4.6453     1.7249    -0.4051 H       
  43 H43           -2.5921     1.3534     3.3273 H       
  44 H44           -4.6355     2.0418     4.5138 H       
  45 H45           -6.6772     2.5734     3.2465 H       
  46 H46           -6.6826     2.4158     0.7904 H       
  47 H47           -4.1104    -0.7118     0.9933 H       
  48 H48           -2.4930    -2.4902    -0.6646 H       
  49 H49           -7.3991    -3.1985     1.1487 H       
  50 H50           -3.9072    -6.1478    -3.4878 H       
  51 H51           -6.2490    -6.3468    -2.4759 H       
  52 H52            1.8902     6.1059     0.3517 H       
  53 H53            0.1575     6.1703     0.7576 H       
  54 H54            1.5974     7.0537     2.6046 H       
  55 H55            0.6606     5.6242     3.1046 H       
  56 H56            3.5788     3.4412     2.8525 H       
  57 H57            1.8438     3.4669     3.2526 H       
  58 H58            2.1668     2.5070     1.0090 H       
  59 H59            3.0702     3.9545     0.4993 H       
  60 H60           -3.5238    -2.4392     2.6232 H       
  61 H61           -1.8138    -2.3641     2.1348 H       
  62 H62           -2.5657    -0.9773     2.9592 H       
@<TRIPOS>BOND
   1    1    2 ar
   2    1    3 ar
   3    1   11 1
   4    2    8 1
   5    2    6 ar
   6    3    4 ar
   7    3    7 1
   8    4    5 ar
   9    4   37 1
  10    5    6 ar
  11    5   38 1
  12    6   39 1
  13    7   30 1
  14    7   40 1
  15    7   41 1
  16    8    9 2
  17    9   10 1
  18    9   18 1
  19   10   11 am
  20   10   12 1
  21   11   22 2
  22   12   13 ar
  23   12   14 ar
  24   13   17 ar
  25   13   42 1
  26   14   15 ar
  27   14   43 1
  28   15   16 ar
  29   15   44 1
  30   16   17 ar
  31   16   45 1
  32   17   46 1
  33   18   19 1
  34   18   36 1
  35   18   47 1
  36   19   20 1
  37   19   48 1
  38   20   21 ar
  39   20   23 ar
  40   21   26 ar
  41   23   24 ar
  42   23   27 1
  43   24   25 ar
  44   24   29 1
  45   25   26 ar
  46   26   49 1
  47   27   28 2
  48   28   29 1
  49   28   50 1
  50   29   51 1
  51   30   31 1
  52   30   35 1
  53   31   32 1
  54   31   52 1
  55   31   53 1
  56   32   33 1
  57   32   54 1
  58   32   55 1
  59   33   34 1
  60   34   35 1
  61   34   56 1
  62   34   57 1
  63   35   58 1
  64   35   59 1
  65   36   60 1
  66   36   61 1
  67   36   62 1

#	End of record

