#	Name: ASD01812652
#	Creating user name:	WinNT
#	Creation time:	15. 06. 2019 19:29

#	Modifying user name:	WinNT
#	Modification time:	15. 06. 2019 19:29

#	Program:	/corina/corina34_cracker 3.40 0067  02.08.2006

@<TRIPOS>MOLECULE
ASD01812652
  55   59    0    0    0
SMALL
NO_CHARGES


@<TRIPOS>ATOM
   1 O1            -0.0163     1.3523     0.0095 O.3     
   2 C2             0.0021    -0.0041     0.0020 C.ar    
   3 C3             1.2103    -0.6845    -0.0132 C.ar    
   4 C4             1.2312    -2.0654    -0.0213 C.ar    
   5 C5             0.0448    -2.7827    -0.0143 C.ar    
   6 C6            -1.1602    -2.1222     0.0007 C.ar    
   7 C7            -1.2002    -0.7250     0.0154 C.ar    
   8 C8            -2.5946    -2.5889     0.0110 C.3     
   9 N9            -3.4198    -1.3756     0.0259 N.am    
  10 C10           -2.6102    -0.3025     0.0375 C.2     
  11 C11           -4.8843    -1.3397     0.0396 C.3     
  12 O12           -2.9888     0.8528     0.0490 O.2     
  13 C13            1.2480     2.0184     0.0010 C.3     
  14 C14            1.0269     3.5323     0.0112 C.3     
  15 C15           -5.3735    -1.3361     1.4650 C.ar    
  16 C16           -5.5678    -0.1355     2.1238 C.ar    
  17 C17           -6.0156    -0.1265     3.4293 C.ar    
  18 C18           -6.2720    -1.3294     4.0834 C.ar    
  19 C19           -6.0747    -2.5357     3.4152 C.ar    
  20 C20           -5.6319    -2.5332     2.1079 C.ar    
  21 C21           -6.7535    -1.3258     5.4879 C.2     
  22 C22           -6.9958    -0.1879     6.2818 C.2     
  23 N23           -7.4091    -0.5912     7.4540 N.2     
  24 N24           -7.4468    -1.9908     7.4550 N.pl3   
  25 C25           -7.0473    -2.4240     6.2423 C.2     
  26 C26           -7.8547    -2.8383     8.5782 C.3     
  27 O27            0.4359     3.9287     1.2543 O.3     
  28 C28            1.3183     4.8196     1.9551 C.3     
  29 C29            2.2033     5.4598     0.8561 C.3     
  30 C30            2.3826     4.2603    -0.1140 C.3     
  31 H31            2.1385    -0.1325    -0.0190 H       
  32 H32            2.1758    -2.5887    -0.0335 H       
  33 H33            0.0677    -3.8625    -0.0211 H       
  34 H34           -2.8047    -3.1740    -0.8843 H       
  35 H35           -2.7884    -3.1849     0.9029 H       
  36 H36           -5.2304    -0.4380    -0.4656 H       
  37 H37           -5.2741    -2.2174    -0.4761 H       
  38 H38            1.8174     1.7283     0.8840 H       
  39 H39            1.8004     1.7379    -0.8958 H       
  40 H40            0.3754     3.8163    -0.8152 H       
  41 H41           -5.3683     0.7965     1.6159 H       
  42 H42           -6.1667     0.8115     3.9430 H       
  43 H43           -6.2717    -3.4710     3.9179 H       
  44 H44           -5.4828    -3.4677     1.5875 H       
  45 H45           -6.8628     0.8391     5.9753 H       
  46 H46           -6.9716    -3.4539     5.9260 H       
  47 H47           -8.9276    -3.0229     8.5232 H       
  48 H48           -7.3199    -3.7869     8.5307 H       
  49 H49           -7.6202    -2.3356     9.5165 H       
  50 H50            0.7458     5.5877     2.4749 H       
  51 H51            1.9350     4.2635     2.6611 H       
  52 H52            1.6869     6.2862     0.3677 H       
  53 H53            3.1617     5.7831     1.2623 H       
  54 H54            3.1999     3.6169     0.2116 H       
  55 H55            2.5436     4.6075    -1.1346 H       
@<TRIPOS>BOND
   1    1    2 1
   2    1   13 1
   3    2    3 ar
   4    2    7 ar
   5    3    4 ar
   6    3   31 1
   7    4    5 ar
   8    4   32 1
   9    5    6 ar
  10    5   33 1
  11    6    8 1
  12    6    7 ar
  13    7   10 1
  14    8    9 1
  15    8   34 1
  16    8   35 1
  17    9   10 am
  18    9   11 1
  19   10   12 2
  20   11   15 1
  21   11   36 1
  22   11   37 1
  23   13   14 1
  24   13   38 1
  25   13   39 1
  26   14   27 1
  27   14   30 1
  28   14   40 1
  29   15   16 ar
  30   15   20 ar
  31   16   17 ar
  32   16   41 1
  33   17   18 ar
  34   17   42 1
  35   18   19 ar
  36   18   21 1
  37   19   20 ar
  38   19   43 1
  39   20   44 1
  40   21   22 1
  41   21   25 2
  42   22   23 2
  43   22   45 1
  44   23   24 1
  45   24   25 1
  46   24   26 1
  47   25   46 1
  48   26   47 1
  49   26   48 1
  50   26   49 1
  51   27   28 1
  52   28   29 1
  53   28   50 1
  54   28   51 1
  55   29   30 1
  56   29   52 1
  57   29   53 1
  58   30   54 1
  59   30   55 1

#	End of record

