#	Name: ASD01911733
#	Creating user name:	WinNT
#	Creation time:	15. 06. 2019 19:58

#	Modifying user name:	WinNT
#	Modification time:	15. 06. 2019 19:58

#	Program:	/corina/corina34_cracker 3.40 0067  02.08.2006

@<TRIPOS>MOLECULE
ASD01911733
  39   41    0    0    0
SMALL
NO_CHARGES


@<TRIPOS>ATOM
   1 N1             0.0313     1.1543    -0.6864 N.am    
   2 C2             0.0021    -0.0041     0.0020 C.2     
   3 C3            -1.2514    -0.7548     0.1206 C.2     
   4 C4            -1.3870    -2.1142     0.0311 C.2     
   5 S5            -2.8479    -0.0665     0.4111 S.3     
   6 C6            -3.5486    -1.6820     0.3771 C.2     
   7 N7            -2.6022    -2.5629     0.1692 N.2     
   8 C8            -4.9369    -1.9854     0.5537 C.1     
   9 C9            -6.0750    -2.2341     0.6985 C.1     
  10 C10           -7.4633    -2.5376     0.8751 C.ar    
  11 N11           -7.8740    -3.8016     0.8285 N.ar    
  12 O12            1.0164    -0.4268     0.5252 O.2     
  13 C13           -1.1504     1.6141    -1.4285 C.3     
  14 C14           -1.4879     3.0405    -0.9833 C.3     
  15 C15           -0.2537     3.9293    -1.1537 C.3     
  16 C16            0.8811     3.4037    -0.2715 C.3     
  17 C17            1.2436     1.9842    -0.7040 C.3     
  18 C18           -9.1415    -4.1210     0.9862 C.ar    
  19 C19          -10.0985    -3.1464     1.2072 C.ar    
  20 C20           -9.7146    -1.8134     1.2635 C.ar    
  21 C21           -8.3763    -1.5037     1.1010 C.ar    
  22 C22           -9.5559    -5.5685     0.9247 C.3     
  23 H23           -0.5455    -2.7686    -0.1422 H       
  24 H24           -0.9368     1.6057    -2.4973 H       
  25 H25           -1.9934     0.9563    -1.2171 H       
  26 H26           -2.3030     3.4290    -1.5940 H       
  27 H27           -1.7891     3.0331     0.0642 H       
  28 H28            0.0617     3.9166    -2.1970 H       
  29 H29           -0.4982     4.9503    -0.8608 H       
  30 H30            1.7522     4.0507    -0.3755 H       
  31 H31            0.5576     3.3929     0.7693 H       
  32 H32            1.9814     1.5700    -0.0168 H       
  33 H33            1.6523     2.0031    -1.7143 H       
  34 H34          -11.1354    -3.4203     1.3344 H       
  35 H35          -10.4442    -1.0357     1.4346 H       
  36 H36           -8.0430    -0.4771     1.1391 H       
  37 H37           -9.5083    -6.0029     1.9232 H       
  38 H38          -10.5757    -5.6387     0.5462 H       
  39 H39           -8.8836    -6.1110     0.2600 H       
@<TRIPOS>BOND
   1    1    2 am
   2    1   13 1
   3    1   17 1
   4    2    3 1
   5    2   12 2
   6    3    4 2
   7    3    5 1
   8    4    7 1
   9    4   23 1
  10    5    6 1
  11    6    7 2
  12    6    8 1
  13    8    9 3
  14    9   10 1
  15   10   11 ar
  16   10   21 ar
  17   11   18 ar
  18   13   14 1
  19   13   24 1
  20   13   25 1
  21   14   15 1
  22   14   26 1
  23   14   27 1
  24   15   16 1
  25   15   28 1
  26   15   29 1
  27   16   17 1
  28   16   30 1
  29   16   31 1
  30   17   32 1
  31   17   33 1
  32   18   19 ar
  33   18   22 1
  34   19   20 ar
  35   19   34 1
  36   20   21 ar
  37   20   35 1
  38   21   36 1
  39   22   37 1
  40   22   38 1
  41   22   39 1

#	End of record

