#	Name: ASD00843239
#	Creating user name:	WinNT
#	Creation time:	15. 06. 2019 18:46

#	Modifying user name:	WinNT
#	Modification time:	15. 06. 2019 18:46

#	Program:	/corina/corina34_cracker 3.40 0067  02.08.2006

@<TRIPOS>MOLECULE
ASD00843239
 100  105    0    0    0
SMALL
NO_CHARGES


@<TRIPOS>ATOM
   1 N1             0.9859     1.0756    -0.3384 N.ar    
   2 C2             1.1491    -0.2125    -0.5900 C.ar    
   3 C3             0.9673    -1.1578     0.4116 C.ar    
   4 C4             0.6122    -0.7347     1.6803 C.ar    
   5 C5             0.4507     0.6260     1.9034 C.ar    
   6 C6             0.6476     1.5094     0.8610 C.ar    
   7 C7             1.1538    -2.6246     0.1202 C.3     
   8 C8             0.7586    -3.4582     1.3205 C.2     
   9 C9             0.3385    -3.0335    -1.1083 C.3     
  10 C10           -1.1027    -2.6415    -0.9079 C.2     
  11 N11           -2.0327    -3.0078    -1.8121 N.am    
  12 O12           -1.4258    -1.9964     0.0669 O.2     
  13 C13           -3.4235    -2.5440    -1.6948 C.3     
  14 C14           -3.8505    -1.9413    -3.0375 C.3     
  15 N15           -3.6096    -2.9182    -4.1078 N.3     
  16 C16           -2.1791    -3.2267    -4.2357 C.3     
  17 C17           -1.6823    -3.8771    -2.9456 C.3     
  18 C18           -4.1629    -2.4474    -5.3846 C.3     
  19 C19           -3.7859    -3.4282    -6.4983 C.3     
  20 C20           -4.4158    -2.9650    -7.8140 C.3     
  21 N21           -5.8753    -2.9037    -7.6645 N.3     
  22 C22           -6.2631    -1.9331    -6.6330 C.3     
  23 C23           -5.6884    -2.3655    -5.2821 C.3     
  24 C24           -6.5234    -2.5965    -8.9465 C.3     
  25 O25           -0.3397    -3.5084     1.8326 O.2     
  26 N26            1.8533    -4.1317     1.7122 N.am    
  27 C27            2.6175    -2.9423    -0.0824 C.ar    
  28 C28            2.9611    -3.8517     0.9104 C.ar    
  29 C29            3.5499    -2.5126    -0.9996 C.ar    
  30 C30            4.8491    -2.9881    -0.9390 C.ar    
  31 C31            5.2046    -3.8955     0.0463 C.ar    
  32 C32            4.2691    -4.3270     0.9672 C.ar    
  33 Cl33           6.0283    -2.4497    -2.0936 Cl      
  34 F34            6.4717    -4.3602     0.1068 F       
  35 C35            1.4781    -6.7744     2.3829 C.ar    
  36 C36            0.2164    -7.0152     1.8580 C.ar    
  37 C37            2.4179    -7.7870     2.4181 C.ar    
  38 C38            2.1041    -9.0410     1.9306 C.ar    
  39 C39            0.8435    -9.2869     1.4046 C.ar    
  40 C40           -0.1010    -8.2730     1.3686 C.ar    
  41 O41            0.5352   -10.5208     0.9256 O.3     
  42 O42           -0.7074    -6.0191     1.8241 O.3     
  43 C43            1.5569   -11.5174     0.9949 C.3     
  44 C44           -1.9854    -6.3382     1.2699 C.3     
  45 C45           -2.8848    -5.1014     1.3168 C.3     
  46 C46           -8.0427    -2.6638    -8.7790 C.3     
  47 C47           -6.1217    -1.1906    -9.3971 C.3     
  48 O48            1.4969    -0.6145    -1.8383 O.3     
  49 C49            1.6262     0.4016    -2.8346 C.3     
  50 C50            2.1166    -0.2250    -4.1414 C.3     
  51 F51            3.3152    -0.9084    -3.9099 F       
  52 F52            1.1539    -1.1206    -4.6193 F       
  53 S53            1.8847    -5.1743     2.9984 S.o2    
  54 O54            3.2377    -5.2414     3.4277 O.2     
  55 O55            0.8164    -4.7896     3.8529 O.2     
  56 H56            0.4637    -1.4467     2.4787 H       
  57 H57            0.1736     0.9896     2.8819 H       
  58 H58            0.5236     2.5689     1.0294 H       
  59 H59            0.7330    -2.5292    -1.9904 H       
  60 H60            0.4057    -4.1127    -1.2461 H       
  61 H61           -4.0707    -3.3859    -1.4490 H       
  62 H62           -3.4921    -1.7858    -0.9148 H       
  63 H63           -4.9112    -1.6929    -3.0037 H       
  64 H64           -3.2711    -1.0387    -3.2317 H       
  65 H65           -2.0277    -3.9104    -5.0710 H       
  66 H66           -1.6230    -2.3062    -4.4133 H       
  67 H67           -0.6005    -4.0028    -2.9919 H       
  68 H68           -2.1613    -4.8477    -2.8168 H       
  69 H69           -3.7589    -1.4616    -5.6152 H       
  70 H70           -2.7016    -3.4586    -6.6049 H       
  71 H71           -4.1556    -4.4225    -6.2481 H       
  72 H72           -4.0351    -1.9764    -8.0707 H       
  73 H73           -4.1611    -3.6690    -8.6062 H       
  74 H74           -5.8738    -0.9494    -6.8952 H       
  75 H75           -7.3502    -1.8877    -6.5674 H       
  76 H76           -6.0881    -3.3431    -5.0127 H       
  77 H77           -5.9633    -1.6366    -4.5196 H       
  78 H78           -6.2080    -3.3223    -9.6961 H       
  79 H79            3.2682    -1.8056    -1.7660 H       
  80 H80            4.5528    -5.0341     1.7328 H       
  81 H81            3.3994    -7.5977     2.8270 H       
  82 H82            2.8405    -9.8306     1.9585 H       
  83 H83           -1.0826    -8.4625     0.9600 H       
  84 H84            2.4242   -11.1892     0.4221 H       
  85 H85            1.8452   -11.6706     2.0349 H       
  86 H86            1.1808   -12.4528     0.5807 H       
  87 H87           -1.8629    -6.6595     0.2356 H       
  88 H88           -2.4419    -7.1415     1.8482 H       
  89 H89           -3.0073    -4.7802     2.3511 H       
  90 H90           -2.4283    -4.2981     0.7384 H       
  91 H91           -3.8596    -5.3448     0.8941 H       
  92 H92           -8.3580    -1.9380    -8.0294 H       
  93 H93           -8.5235    -2.4359    -9.7303 H       
  94 H94           -8.3288    -3.6654    -8.4580 H       
  95 H95           -5.0393    -1.1427    -9.5164 H       
  96 H96           -6.6025    -0.9627   -10.3484 H       
  97 H97           -6.4371    -0.4649    -8.6475 H       
  98 H98            0.6580     0.8743    -2.9993 H       
  99 H99            2.3437     1.1503    -2.4990 H       
 100 H100           2.2822     0.5588    -4.8805 H       
@<TRIPOS>BOND
   1    1    2 ar
   2    1    6 ar
   3    2    3 ar
   4    2   48 1
   5    3    4 ar
   6    3    7 1
   7    4    5 ar
   8    4   56 1
   9    5    6 ar
  10    5   57 1
  11    6   58 1
  12    7    8 1
  13    7    9 1
  14    7   27 1
  15    8   25 2
  16    8   26 am
  17    9   10 1
  18    9   59 1
  19    9   60 1
  20   10   11 am
  21   10   12 2
  22   11   13 1
  23   11   17 1
  24   13   14 1
  25   13   61 1
  26   13   62 1
  27   14   15 1
  28   14   63 1
  29   14   64 1
  30   15   16 1
  31   15   18 1
  32   16   17 1
  33   16   65 1
  34   16   66 1
  35   17   67 1
  36   17   68 1
  37   18   19 1
  38   18   23 1
  39   18   69 1
  40   19   20 1
  41   19   70 1
  42   19   71 1
  43   20   21 1
  44   20   72 1
  45   20   73 1
  46   21   22 1
  47   21   24 1
  48   22   23 1
  49   22   74 1
  50   22   75 1
  51   23   76 1
  52   23   77 1
  53   24   46 1
  54   24   47 1
  55   24   78 1
  56   26   53 am
  57   26   28 1
  58   27   28 ar
  59   27   29 ar
  60   28   32 ar
  61   29   30 ar
  62   29   79 1
  63   30   31 ar
  64   30   33 1
  65   31   32 ar
  66   31   34 1
  67   32   80 1
  68   35   36 ar
  69   35   37 ar
  70   35   53 1
  71   36   42 1
  72   36   40 ar
  73   37   38 ar
  74   37   81 1
  75   38   39 ar
  76   38   82 1
  77   39   40 ar
  78   39   41 1
  79   40   83 1
  80   41   43 1
  81   42   44 1
  82   43   84 1
  83   43   85 1
  84   43   86 1
  85   44   45 1
  86   44   87 1
  87   44   88 1
  88   45   89 1
  89   45   90 1
  90   45   91 1
  91   46   92 1
  92   46   93 1
  93   46   94 1
  94   47   95 1
  95   47   96 1
  96   47   97 1
  97   48   49 1
  98   49   50 1
  99   49   98 1
 100   49   99 1
 101   50   51 1
 102   50   52 1
 103   50  100 1
 104   53   54 2
 105   53   55 2

#	End of record

