#	Name: ASD01915878
#	Creating user name:	WinNT
#	Creation time:	15. 06. 2019 20:06

#	Modifying user name:	WinNT
#	Modification time:	15. 06. 2019 20:06

#	Program:	/corina/corina34_cracker 3.40 0067  02.08.2006

@<TRIPOS>MOLECULE
ASD01915878
  28   30    0    0    0
SMALL
NO_CHARGES


@<TRIPOS>ATOM
   1 C1            -0.0168     1.3844     0.0097 C.2     
   2 C2             0.0021    -0.0041     0.0020 C.2     
   3 C3            -1.2981    -0.7973     0.0056 C.3     
   4 C4            -2.3790     0.0611    -0.6580 C.3     
   5 C5            -2.5215     1.3970     0.0717 C.3     
   6 C6            -1.2079     2.1451     0.0304 C.2     
   7 O7            -1.1774     3.3593     0.0135 O.2     
   8 S8             1.6371     1.9698    -0.0030 S.3     
   9 C9             2.2220     0.3082    -0.0145 C.2     
  10 N10            1.2027    -0.5140    -0.0094 N.2     
  11 C11            3.5995    -0.0832    -0.0273 C.1     
  12 C12            4.7287    -0.4040    -0.0379 C.1     
  13 C13            6.1062    -0.7953    -0.0508 C.ar    
  14 C14            6.4613    -2.1479    -0.0591 C.ar    
  15 C15            7.1218     0.1708    -0.0611 C.ar    
  16 C16            8.4380    -0.2615    -0.0739 C.ar    
  17 C17            8.7047    -1.6214    -0.0759 C.ar    
  18 N18            7.7273    -2.5078    -0.0710 N.ar    
  19 F19            9.4504     0.6329    -0.0846 F       
  20 H20           -1.1666    -1.7225    -0.5554 H       
  21 H21           -1.5873    -1.0258     1.0314 H       
  22 H22           -2.1058     0.2451    -1.6970 H       
  23 H23           -3.3305    -0.4699    -0.6270 H       
  24 H24           -3.2945     1.9938    -0.4125 H       
  25 H25           -2.8017     1.2153     1.1092 H       
  26 H26            5.6899    -2.9038    -0.0554 H       
  27 H27            6.8846     1.2245    -0.0595 H       
  28 H28            9.7298    -1.9614    -0.0859 H       
@<TRIPOS>BOND
   1    1    2 2
   2    1    8 1
   3    1    6 1
   4    2    3 1
   5    2   10 1
   6    3    4 1
   7    3   20 1
   8    3   21 1
   9    4    5 1
  10    4   22 1
  11    4   23 1
  12    5    6 1
  13    5   24 1
  14    5   25 1
  15    6    7 2
  16    8    9 1
  17    9   10 2
  18    9   11 1
  19   11   12 3
  20   12   13 1
  21   13   14 ar
  22   13   15 ar
  23   14   18 ar
  24   14   26 1
  25   15   16 ar
  26   15   27 1
  27   16   17 ar
  28   16   19 1
  29   17   18 ar
  30   17   28 1

#	End of record

