#	Name: ASD07931830
#	Creating user name:	WinNT
#	Creation time:	15. 06. 2019 21:13

#	Modifying user name:	WinNT
#	Modification time:	15. 06. 2019 21:13

#	Program:	/corina/corina34_cracker 3.40 0067  02.08.2006

@<TRIPOS>MOLECULE
ASD07931830
  54   58    0    0    0
SMALL
NO_CHARGES


@<TRIPOS>ATOM
   1 C1            -0.0120     1.4760    -0.0033 C.2     
   2 C2             0.0079    -0.0035    -0.0122 C.2     
   3 N3             1.1876     2.1512     0.0052 N.am    
   4 N4             1.1194    -0.6400     0.4288 N.am    
   5 C5             2.2429     0.1644     0.9297 C.3     
   6 C6             2.4323     1.3707    -0.0020 C.3     
   7 C7            -1.1946     2.1493    -0.0091 C.2     
   8 C8            -1.2184     3.5494     0.0013 C.2     
   9 C9            -0.0395     4.2430     0.0185 C.2     
  10 C10            1.2202     3.4951     0.0186 C.2     
  11 O11           -0.9534    -0.6348    -0.4068 O.2     
  12 O12            2.2871     4.0853     0.0306 O.2     
  13 C13            0.4174     6.4399     1.0307 C.2     
  14 N14            0.2536     7.6848     0.6751 N.2     
  15 C15           -0.3016     7.7293    -0.5453 C.2     
  16 C16           -0.4916     6.4649    -0.9675 C.2     
  17 N17           -0.0367     5.6407     0.0296 N.pl3   
  18 C18           -0.6526     8.9787    -1.3114 C.3     
  19 C19            1.2002    -2.1026     0.4064 C.3     
  20 C20            2.2629    -2.6460    -0.5632 C.3     
  21 C21            2.5970    -3.6920     0.5134 C.3     
  22 C22            2.0515    -2.6899     1.5445 C.3     
  23 O23            3.3275    -1.7277    -0.8189 O.3     
  24 C24            3.9113    -1.8613    -2.1164 C.3     
  25 C25            5.0168    -0.8497    -2.2764 C.ar    
  26 C26            6.3103    -1.1763    -1.9145 C.ar    
  27 C27            7.3243    -0.2484    -2.0613 C.ar    
  28 C28            7.0449     1.0061    -2.5704 C.ar    
  29 C29            5.7515     1.3324    -2.9332 C.ar    
  30 C30            4.7383     0.4029    -2.7904 C.ar    
  31 H31            2.0230     0.5123     1.9390 H       
  32 H32            3.1507    -0.4388     0.9369 H       
  33 H33            2.6442     1.0249    -1.0138 H       
  34 H34            3.2560     1.9877     0.3571 H       
  35 H35           -2.1236     1.5986    -0.0222 H       
  36 H36           -2.1604     4.0776    -0.0045 H       
  37 H37            0.8461     6.1015     1.9624 H       
  38 H38           -0.9200     6.1587    -1.9104 H       
  39 H39            0.1981     9.2816    -1.9218 H       
  40 H40           -1.5099     8.7815    -1.9550 H       
  41 H41           -0.8999     9.7768    -0.6112 H       
  42 H42            0.2261    -2.5797     0.2987 H       
  43 H43            1.8446    -3.0749    -1.4738 H       
  44 H44            2.0048    -4.6038     0.4350 H       
  45 H45            3.6644    -3.8870     0.6165 H       
  46 H46            2.8057    -2.0015     1.9256 H       
  47 H47            1.4625    -3.1543     2.3354 H       
  48 H48            4.3189    -2.8659    -2.2297 H       
  49 H49            3.1495    -1.6904    -2.8769 H       
  50 H50            6.5286    -2.1564    -1.5167 H       
  51 H51            8.3348    -0.5033    -1.7779 H       
  52 H52            7.8370     1.7313    -2.6844 H       
  53 H53            5.5331     2.3125    -3.3306 H       
  54 H54            3.7284     0.6566    -3.0773 H       
@<TRIPOS>BOND
   1    1    2 1
   2    1    3 1
   3    1    7 2
   4    2    4 am
   5    2   11 2
   6    3    6 1
   7    3   10 am
   8    4    5 1
   9    4   19 1
  10    5    6 1
  11    5   31 1
  12    5   32 1
  13    6   33 1
  14    6   34 1
  15    7    8 1
  16    7   35 1
  17    8    9 2
  18    8   36 1
  19    9   10 1
  20    9   17 1
  21   10   12 2
  22   13   14 2
  23   13   17 1
  24   13   37 1
  25   14   15 1
  26   15   16 2
  27   15   18 1
  28   16   17 1
  29   16   38 1
  30   18   39 1
  31   18   40 1
  32   18   41 1
  33   19   20 1
  34   19   22 1
  35   19   42 1
  36   20   21 1
  37   20   23 1
  38   20   43 1
  39   21   22 1
  40   21   44 1
  41   21   45 1
  42   22   46 1
  43   22   47 1
  44   23   24 1
  45   24   25 1
  46   24   48 1
  47   24   49 1
  48   25   26 ar
  49   25   30 ar
  50   26   27 ar
  51   26   50 1
  52   27   28 ar
  53   27   51 1
  54   28   29 ar
  55   28   52 1
  56   29   30 ar
  57   29   53 1
  58   30   54 1

#	End of record

