#	Name: ASD03082385
#	Creating user name:	WinNT
#	Creation time:	15. 06. 2019 20:27

#	Modifying user name:	WinNT
#	Modification time:	15. 06. 2019 20:27

#	Program:	/corina/corina34_cracker 3.40 0067  02.08.2006

@<TRIPOS>MOLECULE
ASD03082385
  43   45    0    0    0
SMALL
NO_CHARGES


@<TRIPOS>ATOM
   1 C1             2.4484     1.3412    -0.7330 C.ar    
   2 C2             2.4419    -0.0164    -0.4315 C.ar    
   3 C3             3.6231    -0.6490    -0.0665 C.ar    
   4 C4             4.8005     0.0707    -0.0038 C.ar    
   5 C5             4.8055     1.4206    -0.3034 C.ar    
   6 C6             3.6324     2.0549    -0.6732 C.ar    
   7 Cl7            3.6438     3.7497    -1.0489 Cl      
   8 N8             1.2485    -0.7428    -0.4952 N.pl3   
   9 C9             1.2703    -2.1359    -0.3720 C.2     
  10 C10            0.1448    -2.9747    -0.3007 C.2     
  11 N11            2.3454    -2.8862    -0.3088 N.2     
  12 N12            1.9406    -4.2219    -0.1894 N.pl3   
  13 C13            0.5822    -4.2487    -0.1870 C.2     
  14 C14            2.7853    -5.3319    -0.0943 C.ar    
  15 C15            2.4562    -6.5356    -0.7143 C.ar    
  16 C16            3.9811    -5.2613     0.6182 C.ar    
  17 C17            4.7871    -6.3788     0.6878 C.ar    
  18 N18            4.4381    -7.5028     0.0909 N.ar    
  19 C19            3.3171    -7.6078    -0.5969 C.ar    
  20 C20            6.0828    -6.3150     1.4547 C.3     
  21 H21            3.0679    -8.5460    -1.0703 H       
  22 C22           -0.2821    -5.4784    -0.0772 C.3     
  23 C23           -0.7683    -5.8860    -1.4694 C.3     
  24 C24           -1.7137    -7.0829    -1.3493 C.3     
  25 O25           -2.1679    -7.4636    -2.6496 O.3     
  26 F26            1.3018     1.9608    -1.0890 F       
  27 H27            3.6210    -1.7031     0.1685 H       
  28 H28            5.7188    -0.4218     0.2801 H       
  29 H29            5.7279     1.9802    -0.2529 H       
  30 H30            0.4057    -0.2805    -0.6249 H       
  31 H31           -0.8871    -2.6574    -0.3308 H       
  32 H32            1.5400    -6.6283    -1.2785 H       
  33 H33            4.2729    -4.3444     1.1087 H       
  34 H34            5.9055    -6.5997     2.4919 H       
  35 H35            6.8036    -6.9999     1.0080 H       
  36 H36            6.4765    -5.2992     1.4190 H       
  37 H37            0.2978    -6.2924     0.3578 H       
  38 H38           -1.1406    -5.2635     0.5590 H       
  39 H39           -1.2965    -5.0504    -1.9288 H       
  40 H40            0.0869    -6.1591    -2.0875 H       
  41 H41           -1.1855    -7.9184    -0.8899 H       
  42 H42           -2.5690    -6.8098    -0.7312 H       
  43 H43           -2.7726    -8.2182    -2.6497 H       
@<TRIPOS>BOND
   1    1    2 ar
   2    1   26 1
   3    1    6 ar
   4    2    3 ar
   5    2    8 1
   6    3    4 ar
   7    3   27 1
   8    4    5 ar
   9    4   28 1
  10    5    6 ar
  11    5   29 1
  12    6    7 1
  13    8    9 1
  14    8   30 1
  15    9   10 1
  16    9   11 2
  17   10   13 2
  18   10   31 1
  19   11   12 1
  20   12   13 1
  21   12   14 1
  22   13   22 1
  23   14   15 ar
  24   14   16 ar
  25   15   19 ar
  26   15   32 1
  27   16   17 ar
  28   16   33 1
  29   17   18 ar
  30   17   20 1
  31   18   19 ar
  32   19   21 1
  33   20   34 1
  34   20   35 1
  35   20   36 1
  36   22   23 1
  37   22   37 1
  38   22   38 1
  39   23   24 1
  40   23   39 1
  41   23   40 1
  42   24   25 1
  43   24   41 1
  44   24   42 1
  45   25   43 1

#	End of record

