#	Name: ASD06660073
#	Creating user name:	WinNT
#	Creation time:	15. 06. 2019 21:07

#	Modifying user name:	WinNT
#	Modification time:	15. 06. 2019 21:07

#	Program:	/corina/corina34_cracker 3.40 0067  02.08.2006

@<TRIPOS>MOLECULE
ASD06660073
  72   75    0    0    0
SMALL
NO_CHARGES


@<TRIPOS>ATOM
   1 C1            -1.3541     1.7025     0.5251 C.2     
   2 C2            -0.9296     0.4325    -0.1662 C.3     
   3 C3            -1.5718     0.3677    -1.5534 C.3     
   4 O4            -0.5236     2.5099     0.8690 O.2     
   5 O5            -2.6554     1.9393     0.7539 O.3     
   6 C6            -1.2545    -0.9597    -2.1924 C.ar    
   7 C7            -2.0505    -2.0596    -1.9299 C.ar    
   8 C8            -1.7623    -3.2775    -2.5139 C.ar    
   9 C9            -0.6722    -3.3967    -3.3659 C.ar    
  10 C10            0.1249    -2.2902    -3.6278 C.ar    
  11 C11           -0.1714    -1.0739    -3.0444 C.ar    
  12 N12           -0.3773    -4.6294    -3.9588 N.am    
  13 C13           -1.1407    -5.7295    -3.8414 C.2     
  14 C14           -0.5274    -6.8737    -4.6181 C.3     
  15 C15            0.4933    -6.1904    -5.5574 C.3     
  16 C16            0.8021    -4.8855    -4.7940 C.3     
  17 O17           -2.1711    -5.7953    -3.2051 O.2     
  18 C18            1.7509    -7.0473    -5.7156 C.3     
  19 N19            1.4127    -8.2849    -6.4229 N.pl3   
  20 C20            2.4000    -9.2276    -6.6849 C.ar    
  21 C21            3.7075    -8.9896    -6.2728 C.ar    
  22 C22            4.6798    -9.9360    -6.5401 C.ar    
  23 C23            4.3108   -11.0934    -7.2133 C.ar    
  24 C24            2.9949   -11.2644    -7.5930 C.ar    
  25 N25            2.0869   -10.3465    -7.3198 N.ar    
  26 C26            6.1076    -9.7162    -6.1111 C.3     
  27 C27            1.3023     0.1455     0.7684 C.2     
  28 C28            2.7665     0.0221     0.6100 C.ar    
  29 C29            3.3512    -1.2364     0.4555 C.ar    
  30 C30            4.7177    -1.3452     0.3077 C.ar    
  31 C31            5.5103    -0.2090     0.3128 C.ar    
  32 C32            4.9361     1.0420     0.4656 C.ar    
  33 C33            3.5698     1.1638     0.6085 C.ar    
  34 O34            0.7954     0.0042     1.8642 O.2     
  35 N35            0.5290     0.4147    -0.3021 N.am    
  36 C36            2.9459     2.5262     0.7686 C.3     
  37 C37            2.4904    -2.4734     0.4508 C.3     
  38 C38            1.9506    -2.7137    -0.9605 C.3     
  39 Cl39           7.2303    -0.3540     0.1273 Cl      
  40 H40           -1.2501    -0.4266     0.4231 H       
  41 H41           -2.6523     0.4765    -1.4589 H       
  42 H42           -1.1785     1.1729    -2.1739 H       
  43 H43           -2.8791     2.7674     1.2003 H       
  44 H44           -2.8981    -1.9662    -1.2672 H       
  45 H45           -2.3839    -4.1363    -2.3079 H       
  46 H46            0.9735    -2.3797    -4.2899 H       
  47 H47            0.4457    -0.2119    -3.2509 H       
  48 H48           -0.0219    -7.5649    -3.9437 H       
  49 H49           -1.2903    -7.3938    -5.1974 H       
  50 H50            0.0462    -5.9736    -6.5276 H       
  51 H51            0.9539    -4.0642    -5.4944 H       
  52 H52            1.6854    -5.0174    -4.1691 H       
  53 H53            2.4974    -6.4950    -6.2864 H       
  54 H54            2.1519    -7.2893    -4.7313 H       
  55 H55            0.4998    -8.4465    -6.7083 H       
  56 H56            3.9597    -8.0779    -5.7515 H       
  57 H57            5.0462   -11.8519    -7.4376 H       
  58 H58            2.7037   -12.1629    -8.1167 H       
  59 H59            6.2526   -10.1215    -5.1097 H       
  60 H60            6.7779   -10.2200    -6.8076 H       
  61 H61            6.3250    -8.6481    -6.1058 H       
  62 H62            5.1711    -2.3181     0.1881 H       
  63 H63            5.5591     1.9241     0.4691 H       
  64 H64            0.9382     0.5966    -1.1626 H       
  65 H65            2.8997     2.7827     1.8270 H       
  66 H66            3.5484     3.2659     0.2414 H       
  67 H67            1.9382     2.5155     0.3530 H       
  68 H68            3.0857    -3.3315     0.7631 H       
  69 H69            1.6572    -2.3389     1.1405 H       
  70 H70            1.2508    -3.5493    -0.9444 H       
  71 H71            1.4386    -1.8177    -1.3111 H       
  72 H72            2.7779    -2.9455    -1.6313 H       
@<TRIPOS>BOND
   1    1    2 1
   2    1    4 2
   3    1    5 1
   4    2    3 1
   5    2   35 1
   6    2   40 1
   7    3    6 1
   8    3   41 1
   9    3   42 1
  10    5   43 1
  11    6    7 ar
  12    6   11 ar
  13    7    8 ar
  14    7   44 1
  15    8    9 ar
  16    8   45 1
  17    9   10 ar
  18    9   12 1
  19   10   11 ar
  20   10   46 1
  21   11   47 1
  22   12   13 am
  23   12   16 1
  24   13   14 1
  25   13   17 2
  26   14   15 1
  27   14   48 1
  28   14   49 1
  29   15   16 1
  30   15   18 1
  31   15   50 1
  32   16   51 1
  33   16   52 1
  34   18   19 1
  35   18   53 1
  36   18   54 1
  37   19   20 1
  38   19   55 1
  39   20   21 ar
  40   20   25 ar
  41   21   22 ar
  42   21   56 1
  43   22   23 ar
  44   22   26 1
  45   23   24 ar
  46   23   57 1
  47   24   25 ar
  48   24   58 1
  49   26   59 1
  50   26   60 1
  51   26   61 1
  52   27   28 1
  53   27   34 2
  54   27   35 am
  55   28   29 ar
  56   28   33 ar
  57   29   30 ar
  58   29   37 1
  59   30   31 ar
  60   30   62 1
  61   31   32 ar
  62   31   39 1
  63   32   33 ar
  64   32   63 1
  65   33   36 1
  66   35   64 1
  67   36   65 1
  68   36   66 1
  69   36   67 1
  70   37   38 1
  71   37   68 1
  72   37   69 1
  73   38   70 1
  74   38   71 1
  75   38   72 1

#	End of record

