#	Name: ASD01028498
#	Creating user name:	WinNT
#	Creation time:	15. 06. 2019 18:57

#	Modifying user name:	WinNT
#	Modification time:	15. 06. 2019 18:57

#	Program:	/corina/corina34_cracker 3.40 0067  02.08.2006

@<TRIPOS>MOLECULE
ASD01028498
  47   51    0    0    0
SMALL
NO_CHARGES


@<TRIPOS>ATOM
   1 C1            -0.0171     1.4118     0.0098 C.ar    
   2 C2             0.0021    -0.0041     0.0020 C.ar    
   3 C3             1.2105     2.1116     0.0018 C.ar    
   4 C4             2.3793     1.3714    -0.0133 C.ar    
   5 C5             2.3160    -0.0162    -0.0202 C.ar    
   6 N6             1.1704    -0.6565    -0.0123 N.ar    
   7 O7             1.2420     3.4670     0.0084 O.3     
   8 C8             2.5299     4.0861    -0.0005 C.3     
   9 C9             2.3673     5.5842     0.0086 C.2     
  10 N10            2.2907     6.3787     1.1108 N.pl3   
  11 C11            2.1473     7.6606     0.6413 C.2     
  12 N12            2.1437     7.5866    -0.6800 N.2     
  13 N13            2.2795     6.3594    -1.0418 N.2     
  14 C14            2.3291     6.1305     2.4512 C.2     
  15 C15            2.2255     7.1539     3.3451 C.2     
  16 C16            2.0768     8.4856     2.8856 C.2     
  17 C17            2.0391     8.7351     1.5501 C.2     
  18 C18           -1.2152    -0.7043     0.0100 C.ar    
  19 C19           -2.4012    -0.0065     0.0251 C.ar    
  20 C20           -2.4085     1.3917     0.0322 C.ar    
  21 C21           -1.2431     2.0938     0.0309 C.ar    
  22 O22           -3.5786    -0.6840     0.0328 O.3     
  23 C23           -4.7758     0.0961     0.0485 C.3     
  24 C24            2.2678     6.8739     4.7969 C.2     
  25 F25            1.8983     9.9999     1.0966 F       
  26 C26            3.2328     7.2878     5.6413 C.2     
  27 C27            3.0543     6.9024     6.9547 C.2     
  28 C28            1.9553     6.1799     7.1878 C.2     
  29 S29            1.0623     5.9553     5.6895 S.3     
  30 C30            4.0277     7.2693     8.0450 C.3     
  31 H31            3.3370     1.8705    -0.0202 H       
  32 H32            3.2348    -0.5838    -0.0321 H       
  33 H33            3.0883     3.7758     0.8827 H       
  34 H34            3.0716     3.7849    -0.8972 H       
  35 H35            2.4420     5.1169     2.8065 H       
  36 H36            1.9942     9.2980     3.5924 H       
  37 H37           -1.2205    -1.7843     0.0039 H       
  38 H38           -3.3501     1.9205     0.0433 H       
  39 H39           -1.2617     3.1736     0.0364 H       
  40 H40           -4.8082     0.7297    -0.8378 H       
  41 H41           -5.6412    -0.5666     0.0533 H       
  42 H42           -4.7911     0.7202     0.9420 H       
  43 H43            4.0793     7.8745     5.3162 H       
  44 H44            1.6582     5.7945     8.1519 H       
  45 H45            3.7341     8.2203     8.4893 H       
  46 H46            4.0242     6.4939     8.8112 H       
  47 H47            5.0288     7.3588     7.6233 H       
@<TRIPOS>BOND
   1    1    2 ar
   2    1    3 ar
   3    1   21 ar
   4    2   18 ar
   5    2    6 ar
   6    3    4 ar
   7    3    7 1
   8    4    5 ar
   9    4   31 1
  10    5    6 ar
  11    5   32 1
  12    7    8 1
  13    8    9 1
  14    8   33 1
  15    8   34 1
  16    9   10 1
  17    9   13 2
  18   10   11 1
  19   10   14 1
  20   11   12 2
  21   11   17 1
  22   12   13 1
  23   14   15 2
  24   14   35 1
  25   15   16 1
  26   15   24 1
  27   16   17 2
  28   16   36 1
  29   17   25 1
  30   18   19 ar
  31   18   37 1
  32   19   20 ar
  33   19   22 1
  34   20   21 ar
  35   20   38 1
  36   21   39 1
  37   22   23 1
  38   23   40 1
  39   23   41 1
  40   23   42 1
  41   24   26 2
  42   24   29 1
  43   26   27 1
  44   26   43 1
  45   27   28 2
  46   27   30 1
  47   28   29 1
  48   28   44 1
  49   30   45 1
  50   30   46 1
  51   30   47 1

#	End of record

