#	Name: ASD07300957
#	Creating user name:	WinNT
#	Creation time:	15. 06. 2019 21:10

#	Modifying user name:	WinNT
#	Modification time:	15. 06. 2019 21:10

#	Program:	/corina/corina34_cracker 3.40 0067  02.08.2006

@<TRIPOS>MOLECULE
ASD07300957
  45   49    0    0    0
SMALL
NO_CHARGES


@<TRIPOS>ATOM
   1 N1            -0.3770     1.7719     0.1009 N.am    
   2 C2            -0.1471     0.4373     0.1861 C.2     
   3 N3             1.0392    -0.0862     0.0831 N.2     
   4 C4             2.1317     0.6675    -0.1177 C.2     
   5 C5             1.9927     2.0607    -0.2198 C.2     
   6 C6             0.6504     2.6299    -0.1008 C.2     
   7 N7             3.4554     0.3984    -0.2597 N.pl3   
   8 N8             4.1330     1.6096    -0.4480 N.2     
   9 C9             3.2782     2.5948    -0.4259 C.2     
  10 O10            0.4640     3.8312    -0.1809 O.2     
  11 C11            4.0694    -0.9312    -0.2219 C.3     
  12 C12            4.7799    -1.2029    -1.5494 C.3     
  13 C13            5.4211    -2.5914    -1.5099 C.3     
  14 C14            6.4360    -2.6522    -0.3666 C.3     
  15 C15            5.7256    -2.3805     0.9610 C.3     
  16 C16            5.0843    -0.9919     0.9215 C.3     
  17 C17           -1.3206    -0.4810     0.4112 C.3     
  18 C18           -2.0529    -0.8733    -0.8829 C.3     
  19 C19           -2.1765    -2.2873    -0.2913 C.3     
  20 C20           -0.9274    -1.9617     0.5445 C.3     
  21 C21           -1.1836    -0.8071    -2.1122 C.2     
  22 O22           -1.3270     0.0432    -3.1426 O.3     
  23 C23           -0.3440    -0.2459    -4.0117 C.2     
  24 N24            0.3469    -1.2283    -3.5069 N.2     
  25 N25           -0.1519    -1.5602    -2.3682 N.2     
  26 F26            7.0223    -3.9218    -0.3304 F       
  27 F27            7.4273    -1.6864    -0.5712 F       
  28 H28           -1.2819     2.1121     0.1807 H       
  29 H29            3.5164     3.6415    -0.5453 H       
  30 H30            3.2971    -1.6837    -0.0625 H       
  31 H31            4.0568    -1.1596    -2.3639 H       
  32 H32            5.5522    -0.4504    -1.7088 H       
  33 H33            4.6488    -3.3439    -1.3505 H       
  34 H34            5.9272    -2.7850    -2.4557 H       
  35 H35            4.9532    -3.1329     1.1204 H       
  36 H36            6.4486    -2.4238     1.7755 H       
  37 H37            5.8567    -0.2395     0.7620 H       
  38 H38            4.5782    -0.7984     1.8672 H       
  39 H39           -1.9860    -0.1318     1.2007 H       
  40 H40           -3.0104    -0.3690    -1.0128 H       
  41 H41           -3.0761    -2.4333     0.3067 H       
  42 H42           -2.0188    -3.0813    -1.0211 H       
  43 H43            0.0090    -2.2114     0.0456 H       
  44 H44           -0.9764    -2.3361     1.5670 H       
  45 H45           -0.1603     0.2458    -4.9555 H       
@<TRIPOS>BOND
   1    1    2 1
   2    1    6 am
   3    1   28 1
   4    2    3 2
   5    2   17 1
   6    3    4 1
   7    4    5 2
   8    4    7 1
   9    5    6 1
  10    5    9 1
  11    6   10 2
  12    7    8 1
  13    7   11 1
  14    8    9 2
  15    9   29 1
  16   11   12 1
  17   11   16 1
  18   11   30 1
  19   12   13 1
  20   12   31 1
  21   12   32 1
  22   13   14 1
  23   13   33 1
  24   13   34 1
  25   14   15 1
  26   14   26 1
  27   14   27 1
  28   15   16 1
  29   15   35 1
  30   15   36 1
  31   16   37 1
  32   16   38 1
  33   17   18 1
  34   17   20 1
  35   17   39 1
  36   18   19 1
  37   18   21 1
  38   18   40 1
  39   19   20 1
  40   19   41 1
  41   19   42 1
  42   20   43 1
  43   20   44 1
  44   21   22 1
  45   21   25 2
  46   22   23 1
  47   23   24 2
  48   23   45 1
  49   24   25 1

#	End of record

