#	Name: ASD05790100
#	Creating user name:	WinNT
#	Creation time:	15. 06. 2019 21:03

#	Modifying user name:	WinNT
#	Modification time:	15. 06. 2019 21:03

#	Program:	/corina/corina34_cracker 3.40 0067  02.08.2006

@<TRIPOS>MOLECULE
ASD05790100
  74   79    0    0    0
SMALL
NO_CHARGES


@<TRIPOS>ATOM
   1 C1             0.0788     1.5800    -0.2158 C.3     
   2 C2             0.1029     0.0507    -0.2475 C.3     
   3 C3             0.7344    -0.4710     1.0455 C.3     
   4 C4             2.1075     0.1555     1.2041 C.2     
   5 C5             2.2125     1.6595     1.0950 C.3     
   6 C6             1.5104     2.1135    -0.1897 C.3     
   7 C7             3.1203    -0.6349     1.4235 C.2     
   8 C8             4.5383    -0.1535     1.6229 C.3     
   9 C9             4.4510     1.2808     2.1259 C.3     
  10 C10            3.6624     2.0709     1.0536 C.3     
  11 C11            5.7897     2.0349     2.1406 C.3     
  12 C12            5.4079     3.5000     1.9559 C.2     
  13 C13            3.9828     3.5203     1.3936 C.3     
  14 C14            1.5332     2.3071     2.3034 C.3     
  15 O15           -1.2325    -0.4453    -0.3603 O.3     
  16 C16            6.4686     1.8136     3.4794 C.3     
  17 C17            7.8021     2.4693     3.6021 C.3     
  18 C18            7.7692     3.9459     3.9130 C.3     
  19 C19            7.4801     4.7881     2.6839 C.3     
  20 C20            6.1159     4.5345     2.1529 C.2     
  21 C21            5.4069     5.8032     1.7543 C.3     
  22 C22            9.1427     4.3708     4.5019 C.3     
  23 C23            8.7774     4.9041     5.8899 C.3     
  24 C24            7.4695     4.1119     6.1703 C.3     
  25 O25            6.7738     4.2131     4.9318 O.3     
  26 N26            9.7053     4.5878     6.9658 N.3     
  27 C27            9.1744     5.1330     8.2305 C.3     
  28 C28            7.7990     4.5605     8.5607 C.3     
  29 C29            6.8222     4.7468     7.3862 C.3     
  30 C30           10.0781     3.1654     4.6153 C.3     
  31 C31            7.2418     5.2737     9.7943 C.3     
  32 H32           -0.4317     1.9537    -1.1034 H       
  33 H33           -0.4503     1.9165     0.6758 H       
  34 H34            0.6904    -0.2865    -1.1014 H       
  35 H35            0.1077    -0.1980     1.8945 H       
  36 H36            0.8312    -1.5555     0.9935 H       
  37 H37            2.0547     1.7323    -1.0538 H       
  38 H38            1.4918     3.2027    -0.2267 H       
  39 H39            2.9347    -1.6979     1.4655 H       
  40 H40            5.0428    -0.7769     2.3610 H       
  41 H41            5.0784    -0.1839     0.6766 H       
  42 H42            3.9535     1.3255     3.0948 H       
  43 H43            4.0722     1.8444     0.0692 H       
  44 H44            6.4242     1.7005     1.3199 H       
  45 H45            3.9400     4.1370     0.4959 H       
  46 H46            3.2863     3.8950     2.1436 H       
  47 H47            2.0240     1.9740     3.2179 H       
  48 H48            1.6089     3.3916     2.2248 H       
  49 H49            0.4828     2.0170     2.3284 H       
  50 H50           -1.2929    -1.4101    -0.3861 H       
  51 H51            5.8191     2.1987     4.2655 H       
  52 H52            6.5938     0.7416     3.6317 H       
  53 H53            8.3601     1.9655     4.3914 H       
  54 H54            8.3406     2.3285     2.6649 H       
  55 H55            7.5692     5.8423     2.9462 H       
  56 H56            8.2118     4.5523     1.9112 H       
  57 H57            6.0570     6.6575     1.9432 H       
  58 H58            5.1588     5.7630     0.6937 H       
  59 H59            4.4920     5.9068     2.3378 H       
  60 H60            9.5956     5.1550     3.8952 H       
  61 H61            8.5758     5.9744     5.8466 H       
  62 H62            7.7065     3.0682     6.3768 H       
  63 H63            9.8529     3.5920     7.0350 H       
  64 H64            9.8637     4.8901     9.0392 H       
  65 H65            9.0968     6.2169     8.1453 H       
  66 H66            7.8975     3.4970     8.7782 H       
  67 H67            6.6541     5.8087     7.2066 H       
  68 H68            5.8767     4.2511     7.6061 H       
  69 H69           10.1459     2.6659     3.6488 H       
  70 H70           11.0689     3.5018     4.9206 H       
  71 H71            9.6859     2.4697     5.3571 H       
  72 H72            7.1548     6.3406     9.5888 H       
  73 H73            6.2589     4.8688    10.0351 H       
  74 H74            7.9148     5.1199    10.6378 H       
@<TRIPOS>BOND
   1    1    2 1
   2    1    6 1
   3    1   32 1
   4    1   33 1
   5    2    3 1
   6    2   15 1
   7    2   34 1
   8    3    4 1
   9    3   35 1
  10    3   36 1
  11    4    5 1
  12    4    7 2
  13    5    6 1
  14    5   14 1
  15    5   10 1
  16    6   37 1
  17    6   38 1
  18    7    8 1
  19    7   39 1
  20    8    9 1
  21    8   40 1
  22    8   41 1
  23    9   10 1
  24    9   11 1
  25    9   42 1
  26   10   13 1
  27   10   43 1
  28   11   12 1
  29   11   16 1
  30   11   44 1
  31   12   13 1
  32   12   20 2
  33   13   45 1
  34   13   46 1
  35   14   47 1
  36   14   48 1
  37   14   49 1
  38   15   50 1
  39   16   17 1
  40   16   51 1
  41   16   52 1
  42   17   18 1
  43   17   53 1
  44   17   54 1
  45   18   19 1
  46   18   25 1
  47   18   22 1
  48   19   20 1
  49   19   55 1
  50   19   56 1
  51   20   21 1
  52   21   57 1
  53   21   58 1
  54   21   59 1
  55   22   23 1
  56   22   30 1
  57   22   60 1
  58   23   24 1
  59   23   26 1
  60   23   61 1
  61   24   25 1
  62   24   29 1
  63   24   62 1
  64   26   27 1
  65   26   63 1
  66   27   28 1
  67   27   64 1
  68   27   65 1
  69   28   29 1
  70   28   31 1
  71   28   66 1
  72   29   67 1
  73   29   68 1
  74   30   69 1
  75   30   70 1
  76   30   71 1
  77   31   72 1
  78   31   73 1
  79   31   74 1

#	End of record

