#	Name: ASD02448187
#	Creating user name:	WinNT
#	Creation time:	15. 06. 2019 20:22

#	Modifying user name:	WinNT
#	Modification time:	15. 06. 2019 20:22

#	Program:	/corina/corina34_cracker 3.40 0067  02.08.2006

@<TRIPOS>MOLECULE
ASD02448187
  71   75    0    0    0
SMALL
NO_CHARGES


@<TRIPOS>ATOM
   1 C1            -0.0234     1.3534    -0.0540 C.ar    
   2 C2            -0.0044    -0.0279    -0.0458 C.ar    
   3 C3             1.2069    -0.7076    -0.0374 C.ar    
   4 C4             2.3986     0.0017    -0.0371 C.ar    
   5 C5             2.3768     1.3897    -0.0453 C.ar    
   6 C6             1.1618     2.0636    -0.0537 C.ar    
   7 N7             3.5747     2.1078    -0.0446 N.am    
   8 C8             3.8109     3.4696    -0.5412 C.3     
   9 C9             5.2375     3.8757    -0.3566 C.2     
  10 N10            6.0168     2.9458     0.2134 N.am    
  11 S11            5.0635     1.6179     0.5273 S.o2    
  12 O12            5.6573     4.9617    -0.6963 O.2     
  13 O13            4.9602     1.5004     1.9397 O.2     
  14 O14            5.5082     0.5715    -0.3251 O.2     
  15 N15            1.2248    -2.1095    -0.0286 N.pl3   
  16 C16            1.8565    -2.9191    -0.9345 C.2     
  17 C17            0.6234    -2.9174     0.8839 C.2     
  18 N18            0.8591    -4.1598     0.5670 N.2     
  19 C19            1.6160    -4.1992    -0.5485 C.2     
  20 C20            2.0998    -5.4233    -1.2329 C.ar    
  21 C21            1.7773    -6.6823    -0.7262 C.ar    
  22 C22            2.8732    -5.3195    -2.3871 C.ar    
  23 C23            3.3210    -6.4614    -3.0203 C.ar    
  24 C24            3.0029    -7.7085    -2.5110 C.ar    
  25 C25            2.2304    -7.8182    -1.3674 C.ar    
  26 C26           -0.1840    -2.4529     2.0685 C.3     
  27 C27            0.6966    -2.4093     3.2906 C.ar    
  28 C28            1.4592    -1.2846     3.5503 C.ar    
  29 C29            0.7346    -3.4919     4.1511 C.ar    
  30 C30            1.5384    -3.4582     5.2720 C.ar    
  31 C31            2.3140    -2.3289     5.5368 C.ar    
  32 C32            2.2675    -1.2384     4.6675 C.ar    
  33 C33            3.1774    -2.2859     6.7358 C.2     
  34 Cl34           3.5691    -9.1403    -3.3130 Cl      
  35 Cl35           0.8086    -6.8207     0.7077 Cl      
  36 C36            4.7934    -1.1678     8.2071 C.3     
  37 C37            3.9131    -1.2116     6.9847 C.2     
  38 C38            7.1256    -0.8128     9.0300 C.3     
  39 C39            6.2319    -0.8573     7.7889 C.3     
  40 C40            8.5642    -0.5023     8.6117 C.3     
  41 C41            9.4578    -0.4578     9.8528 C.3     
  42 H42           -0.9667     1.8793    -0.0651 H       
  43 H43           -0.9326    -0.5801    -0.0457 H       
  44 H44            3.3416    -0.5247    -0.0301 H       
  45 H45            1.1438     3.1434    -0.0601 H       
  46 H46            3.5624     3.5110    -1.6017 H       
  47 H47            3.1691     4.1638     0.0012 H       
  48 H48            6.9628     3.0322     0.4098 H       
  49 H49            2.4338    -2.6015    -1.7903 H       
  50 H50            3.1216    -4.3472    -2.7860 H       
  51 H51            3.9205    -6.3815    -3.9151 H       
  52 H52            1.9852    -8.7936    -0.9738 H       
  53 H53           -0.5800    -1.4569     1.8703 H       
  54 H54           -1.0090    -3.1445     2.2396 H       
  55 H55            1.4220    -0.4411     2.8769 H       
  56 H56            0.1335    -4.3653     3.9452 H       
  57 H57            1.5669    -4.3038     5.9432 H       
  58 H58            2.8657    -0.3615     4.8668 H       
  59 H59            3.2088    -3.1298     7.4091 H       
  60 H60            4.4363    -0.3919     8.8843 H       
  61 H61            4.7622    -2.1333     8.7121 H       
  62 H62            3.8817    -0.3678     6.3114 H       
  63 H63            6.7686    -0.0369     9.7072 H       
  64 H64            7.0944    -1.7783     9.5349 H       
  65 H65            6.5890    -1.6332     7.1117 H       
  66 H66            6.2631     0.1082     7.2839 H       
  67 H67            8.9212    -1.2782     7.9345 H       
  68 H68            8.5954     0.4632     8.1067 H       
  69 H69           10.4827    -0.2366     9.5548 H       
  70 H70            9.1008     0.3181    10.5300 H       
  71 H71            9.4266    -1.4233    10.3577 H       
@<TRIPOS>BOND
   1    1    2 ar
   2    1    6 ar
   3    1   42 1
   4    2    3 ar
   5    2   43 1
   6    3    4 ar
   7    3   15 1
   8    4    5 ar
   9    4   44 1
  10    5    6 ar
  11    5    7 1
  12    6   45 1
  13    7    8 1
  14    7   11 am
  15    8    9 1
  16    8   46 1
  17    8   47 1
  18    9   10 am
  19    9   12 2
  20   10   11 am
  21   10   48 1
  22   11   13 2
  23   11   14 2
  24   15   16 1
  25   15   17 1
  26   16   19 2
  27   16   49 1
  28   17   18 2
  29   17   26 1
  30   18   19 1
  31   19   20 1
  32   20   21 ar
  33   20   22 ar
  34   21   35 1
  35   21   25 ar
  36   22   23 ar
  37   22   50 1
  38   23   24 ar
  39   23   51 1
  40   24   25 ar
  41   24   34 1
  42   25   52 1
  43   26   27 1
  44   26   53 1
  45   26   54 1
  46   27   28 ar
  47   27   29 ar
  48   28   32 ar
  49   28   55 1
  50   29   30 ar
  51   29   56 1
  52   30   31 ar
  53   30   57 1
  54   31   32 ar
  55   31   33 1
  56   32   58 1
  57   33   37 2
  58   33   59 1
  59   36   37 1
  60   36   39 1
  61   36   60 1
  62   36   61 1
  63   37   62 1
  64   38   40 1
  65   38   39 1
  66   38   63 1
  67   38   64 1
  68   39   65 1
  69   39   66 1
  70   40   41 1
  71   40   67 1
  72   40   68 1
  73   41   69 1
  74   41   70 1
  75   41   71 1

#	End of record

