#	Name: ASD03082296
#	Creating user name:	WinNT
#	Creation time:	15. 06. 2019 20:27

#	Modifying user name:	WinNT
#	Modification time:	15. 06. 2019 20:27

#	Program:	/corina/corina34_cracker 3.40 0067  02.08.2006

@<TRIPOS>MOLECULE
ASD03082296
  46   48    0    0    0
SMALL
NO_CHARGES


@<TRIPOS>ATOM
   1 N1             0.0245     1.4299    -0.1385 N.pl3   
   2 N2            -0.0187     0.0269    -0.1792 N.2     
   3 C3             1.2022    -0.4003     0.0498 C.2     
   4 N4             2.0036     0.6502     0.2307 N.2     
   5 C5             1.3083     1.7642     0.1203 C.2     
   6 N6             1.5971    -1.7385     0.0970 N.pl3   
   7 C7             2.9518    -2.0641     0.2326 C.ar    
   8 C8             3.3214    -3.2780     0.7970 C.ar    
   9 C9             4.6581    -3.5986     0.9300 C.ar    
  10 C10            5.6313    -2.7085     0.5005 C.ar    
  11 C11            5.2630    -1.4958    -0.0633 C.ar    
  12 C12            3.9268    -1.1760    -0.2023 C.ar    
  13 C13            1.8395     3.1391     0.2558 C.ar    
  14 C14           -1.0980     2.3490    -0.3424 C.3     
  15 C15            3.2084     3.3968     0.1265 C.ar    
  16 C16            3.6606     4.6936     0.2604 C.ar    
  17 N17            2.8217     5.6814     0.5065 N.ar    
  18 C18            1.5242     5.4820     0.6356 C.ar    
  19 C19            0.9858     4.2177     0.5110 C.ar    
  20 C20           -1.7821     2.6065     0.9754 C.2     
  21 N21           -2.8493     3.4278     1.0315 N.am    
  22 C22           -3.5144     3.6781     2.3126 C.3     
  23 O23           -1.3724     2.0747     1.9855 O.2     
  24 C24           -3.3442     4.0702    -0.1886 C.3     
  25 O25            6.9474    -3.0247     0.6327 O.3     
  26 C26            7.8957    -2.0614     0.1692 C.3     
  27 H27            0.9328    -2.4427     0.0358 H       
  28 H28            2.5638    -3.9709     1.1322 H       
  29 H29            4.9457    -4.5426     1.3689 H       
  30 H30            6.0215    -0.8034    -0.3975 H       
  31 H31            3.6402    -0.2337    -0.6454 H       
  32 H32           -0.7278     3.2899    -0.7496 H       
  33 H33           -1.8085     1.9056    -1.0401 H       
  34 H34            3.9010     2.5929    -0.0746 H       
  35 H35            4.7157     4.9026     0.1626 H       
  36 H36            0.8739     6.3204     0.8373 H       
  37 H37           -0.0776     4.0618     0.6175 H       
  38 H38           -3.0554     4.5394     2.7981 H       
  39 H39           -4.5717     3.8791     2.1400 H       
  40 H40           -3.4108     2.8022     2.9531 H       
  41 H41           -2.7278     3.7665    -1.0347 H       
  42 H42           -4.3768     3.7688    -0.3646 H       
  43 H43           -3.2962     5.1531    -0.0741 H       
  44 H44            7.7426    -1.8839    -0.8953 H       
  45 H45            7.7624    -1.1280     0.7161 H       
  46 H46            8.9055    -2.4376     0.3333 H       
@<TRIPOS>BOND
   1    1    2 1
   2    1    5 1
   3    1   14 1
   4    2    3 2
   5    3    4 1
   6    3    6 1
   7    4    5 2
   8    5   13 1
   9    6    7 1
  10    6   27 1
  11    7    8 ar
  12    7   12 ar
  13    8    9 ar
  14    8   28 1
  15    9   10 ar
  16    9   29 1
  17   10   11 ar
  18   10   25 1
  19   11   12 ar
  20   11   30 1
  21   12   31 1
  22   13   15 ar
  23   13   19 ar
  24   14   20 1
  25   14   32 1
  26   14   33 1
  27   15   16 ar
  28   15   34 1
  29   16   17 ar
  30   16   35 1
  31   17   18 ar
  32   18   19 ar
  33   18   36 1
  34   19   37 1
  35   20   21 am
  36   20   23 2
  37   21   22 1
  38   21   24 1
  39   22   38 1
  40   22   39 1
  41   22   40 1
  42   24   41 1
  43   24   42 1
  44   24   43 1
  45   25   26 1
  46   26   44 1
  47   26   45 1
  48   26   46 1

#	End of record

