#	Name: ASD03091245
#	Creating user name:	WinNT
#	Creation time:	15. 06. 2019 20:30

#	Modifying user name:	WinNT
#	Modification time:	15. 06. 2019 20:30

#	Program:	/corina/corina34_cracker 3.40 0067  02.08.2006

@<TRIPOS>MOLECULE
ASD03091245
  48   52    0    0    0
SMALL
NO_CHARGES


@<TRIPOS>ATOM
   1 N1            -0.0157     1.3039     0.0083 N.2     
   2 C2             0.0021    -0.0037     0.0376 C.2     
   3 N3             1.1594    -0.7346     0.0629 N.am    
   4 C4             2.3618    -0.1133     0.0584 C.2     
   5 C5             2.3659     1.3567     0.0256 C.ar    
   6 C6             3.5520     2.0873     0.0181 C.ar    
   7 C7             3.4972     3.4705    -0.0136 C.ar    
   8 C8             2.2672     4.1281    -0.0379 C.ar    
   9 C9             1.0966     3.4258    -0.0309 C.ar    
  10 C10            1.1220     2.0280     0.0010 C.ar    
  11 O11            3.4006    -0.7475     0.0811 O.2     
  12 C12           -1.2867    -0.7254     0.0442 C.ar    
  13 C13           -2.4899    -0.0142     0.0194 C.ar    
  14 C14           -3.6934    -0.6987     0.0258 C.ar    
  15 C15           -3.7041    -2.0830     0.0571 C.ar    
  16 C16           -2.5149    -2.7901     0.0817 C.ar    
  17 C17           -1.3088    -2.1213     0.0694 C.ar    
  18 F18           -4.8585    -0.0153     0.0019 F       
  19 F19           -2.4785     1.3365    -0.0103 F       
  20 N20            7.4094     4.9773    -0.8837 N.3     
  21 C21            7.1453     4.1124     0.2763 C.3     
  22 C22            5.8531     3.3342     0.0831 C.3     
  23 N23            4.6816     4.2124    -0.0210 N.3     
  24 C24            4.7693     5.0526    -1.2235 C.3     
  25 C25            5.3910     6.3995    -0.8858 C.3     
  26 C26            6.8836     6.3271    -0.6343 C.3     
  27 C27            7.0227     4.4518    -2.1755 C.3     
  28 C28            5.5166     4.2957    -2.3062 C.3     
  29 H29            1.1174    -1.7035     0.0845 H       
  30 H30            4.5051     1.5797     0.0372 H       
  31 H31            2.2406     5.2075    -0.0622 H       
  32 H32            0.1520     3.9491    -0.0496 H       
  33 H33           -4.6449    -2.6132     0.0627 H       
  34 H34           -2.5312    -3.8697     0.1064 H       
  35 H35           -0.3825    -2.6764     0.0841 H       
  36 H36            7.9716     3.4120     0.3975 H       
  37 H37            7.0631     4.7282     1.1720 H       
  38 H38            5.9313     2.7406    -0.8277 H       
  39 H39            5.7160     2.6617     0.9299 H       
  40 H40            3.7567     5.2286    -1.5864 H       
  41 H41            5.2089     7.0857    -1.7129 H       
  42 H42            4.9051     6.7949     0.0062 H       
  43 H43            7.0836     6.6011     0.4015 H       
  44 H44            7.3900     7.0334    -1.2921 H       
  45 H45            7.3767     5.1289    -2.9529 H       
  46 H46            7.4926     3.4784    -2.3162 H       
  47 H47            5.2628     3.2378    -2.2383 H       
  48 H48            5.2047     4.6713    -3.2808 H       
@<TRIPOS>BOND
   1    1    2 2
   2    1   10 1
   3    2    3 1
   4    2   12 1
   5    3    4 am
   6    3   29 1
   7    4    5 1
   8    4   11 2
   9    5    6 ar
  10    5   10 ar
  11    6    7 ar
  12    6   30 1
  13    7    8 ar
  14    7   23 1
  15    8    9 ar
  16    8   31 1
  17    9   10 ar
  18    9   32 1
  19   12   13 ar
  20   12   17 ar
  21   13   14 ar
  22   13   19 1
  23   14   15 ar
  24   14   18 1
  25   15   16 ar
  26   15   33 1
  27   16   17 ar
  28   16   34 1
  29   17   35 1
  30   20   21 1
  31   20   26 1
  32   20   27 1
  33   21   22 1
  34   21   36 1
  35   21   37 1
  36   22   23 1
  37   22   38 1
  38   22   39 1
  39   23   24 1
  40   24   25 1
  41   24   28 1
  42   24   40 1
  43   25   26 1
  44   25   41 1
  45   25   42 1
  46   26   43 1
  47   26   44 1
  48   27   28 1
  49   27   45 1
  50   27   46 1
  51   28   47 1
  52   28   48 1

#	End of record

