#	Name: ASD01412017
#	Creating user name:	WinNT
#	Creation time:	15. 06. 2019 19:19

#	Modifying user name:	WinNT
#	Modification time:	15. 06. 2019 19:19

#	Program:	/corina/corina34_cracker 3.40 0067  02.08.2006

@<TRIPOS>MOLECULE
ASD01412017
  83   88    0    0    0
SMALL
NO_CHARGES


@<TRIPOS>ATOM
   1 C1            -1.1719     3.2496    -0.6277 C.ar    
   2 C2            -0.9741     1.9111    -1.0233 C.ar    
   3 C3            -2.0423     1.0035    -0.9801 C.ar    
   4 C4            -3.2688     1.4147    -0.5569 C.ar    
   5 C5            -3.4749     2.7445    -0.1614 C.ar    
   6 C6            -2.4232     3.6580    -0.1930 C.ar    
   7 N7             0.0355     3.9017    -0.7728 N.pl3   
   8 C8             0.9675     3.0079    -1.2442 C.2     
   9 C9             0.3840     1.7934    -1.4055 C.2     
  10 C10            1.0612     0.5420    -1.9019 C.3     
  11 C11            0.9735    -0.5453    -0.8290 C.3     
  12 C12            1.6611    -1.8157    -1.3330 C.3     
  13 C13            0.9670    -2.2999    -2.6077 C.3     
  14 C14            1.0547    -1.2127    -3.6806 C.3     
  15 C15            0.3671     0.0578    -3.1766 C.3     
  16 C16           -4.8099     3.1767     0.2947 C.2     
  17 O17           -4.9914     4.3289     0.6382 O.2     
  18 N18           -5.8281     2.2944     0.3306 N.am    
  19 C19           -7.1536     2.7236     0.7834 C.3     
  20 C20           -8.1053     1.5564     0.7288 C.2     
  21 C21           -7.0595     3.2381     2.2213 C.3     
  22 C22           -7.6657     3.8423    -0.1260 C.3     
  23 C23           -8.8162    -0.4856    -0.2541 C.ar    
  24 O24           -8.9757     1.4440     1.5659 O.2     
  25 C25           -9.1920    -1.0744     0.9496 C.ar    
  26 C26          -10.0119    -2.1796     0.9509 C.ar    
  27 C27          -10.4685    -2.7113    -0.2613 C.ar    
  28 C28          -10.0881    -2.1153    -1.4698 C.ar    
  29 C29           -9.2675    -1.0107    -1.4614 C.ar    
  30 C30          -11.3438    -3.8915    -0.2651 C.2     
  31 C31          -12.3917    -3.9582     0.5851 C.2     
  32 N32           -7.9893     0.6375    -0.2503 N.am    
  33 C33            0.2832     5.3144    -0.4743 C.3     
  34 C34            2.3842     3.3209    -1.5308 C.ar    
  35 C35            2.7132     4.4828    -2.2252 C.ar    
  36 C36            4.0502     4.7720    -2.4915 C.ar    
  37 C37            5.0448     3.8883    -2.0561 C.ar    
  38 C38            4.7157     2.7427    -1.3706 C.ar    
  39 C39            3.3911     2.4540    -1.0997 C.ar    
  40 C40            4.7114     5.8898    -3.1859 C.2     
  41 N41            5.9903     5.7430    -3.1967 N.2     
  42 C42            6.3495     4.4989    -2.5059 C.3     
  43 C43          -12.7902    -2.8071     1.3106 C.2     
  44 O44          -12.2162    -1.7490     1.1357 O.2     
  45 O45          -13.8062    -2.8854     2.1951 O.3     
  46 H46           -1.8917    -0.0222    -1.2830 H       
  47 H47           -4.0888     0.7125    -0.5259 H       
  48 H48           -2.5841     4.6814     0.1124 H       
  49 H49            2.1080     0.7564    -2.1172 H       
  50 H50            1.4680    -0.2003     0.0791 H       
  51 H51           -0.0733    -0.7596    -0.6137 H       
  52 H52            2.7079    -1.6014    -1.5483 H       
  53 H53            1.5986    -2.5903    -0.5686 H       
  54 H54            1.4569    -3.2050    -2.9667 H       
  55 H55           -0.0798    -2.5143    -2.3923 H       
  56 H56            2.1015    -0.9983    -3.8959 H       
  57 H57            0.5603    -1.5576    -4.5886 H       
  58 H58           -0.6796    -0.1566    -2.9613 H       
  59 H59            0.4296     0.8324    -3.9409 H       
  60 H60           -5.6832     1.3753     0.0566 H       
  61 H61           -6.3711     4.0822     2.2608 H       
  62 H62           -8.0457     3.5574     2.5582 H       
  63 H63           -6.6946     2.4411     2.8692 H       
  64 H64           -7.7328     3.4758    -1.1504 H       
  65 H65           -8.6520     4.1616     0.2109 H       
  66 H66           -6.9774     4.6865    -0.0865 H       
  67 H67           -8.8394    -0.6636     1.8841 H       
  68 H68          -10.3025    -2.6363     1.8854 H       
  69 H69          -10.4376    -2.5223    -2.4071 H       
  70 H70           -8.9739    -0.5500    -2.3930 H       
  71 H71          -11.1494    -4.7058    -0.9475 H       
  72 H72          -12.9258    -4.8883     0.7120 H       
  73 H73           -7.3307     0.7574    -0.9523 H       
  74 H74            0.5949     5.4169     0.5652 H       
  75 H75            1.0694     5.6915    -1.1283 H       
  76 H76           -0.6305     5.8859    -0.6376 H       
  77 H77            1.9361     5.1559    -2.5559 H       
  78 H78            5.4929     2.0694    -1.0407 H       
  79 H79            3.1342     1.5538    -0.5612 H       
  80 H80            4.1902     6.7254    -3.6293 H       
  81 H81            6.9802     4.7159    -1.6438 H       
  82 H82            6.8647     3.8242    -3.1895 H       
  83 H83          -14.0051    -2.0505     2.6406 H       
@<TRIPOS>BOND
   1    1    2 ar
   2    1    7 1
   3    1    6 ar
   4    2    3 ar
   5    2    9 1
   6    3    4 ar
   7    3   46 1
   8    4    5 ar
   9    4   47 1
  10    5    6 ar
  11    5   16 1
  12    6   48 1
  13    7    8 1
  14    7   33 1
  15    8    9 2
  16    8   34 1
  17    9   10 1
  18   10   11 1
  19   10   15 1
  20   10   49 1
  21   11   12 1
  22   11   50 1
  23   11   51 1
  24   12   13 1
  25   12   52 1
  26   12   53 1
  27   13   14 1
  28   13   54 1
  29   13   55 1
  30   14   15 1
  31   14   56 1
  32   14   57 1
  33   15   58 1
  34   15   59 1
  35   16   17 2
  36   16   18 am
  37   18   19 1
  38   18   60 1
  39   19   20 1
  40   19   21 1
  41   19   22 1
  42   20   24 2
  43   20   32 am
  44   21   61 1
  45   21   62 1
  46   21   63 1
  47   22   64 1
  48   22   65 1
  49   22   66 1
  50   23   25 ar
  51   23   29 ar
  52   23   32 1
  53   25   26 ar
  54   25   67 1
  55   26   27 ar
  56   26   68 1
  57   27   28 ar
  58   27   30 1
  59   28   29 ar
  60   28   69 1
  61   29   70 1
  62   30   31 2
  63   30   71 1
  64   31   43 1
  65   31   72 1
  66   32   73 1
  67   33   74 1
  68   33   75 1
  69   33   76 1
  70   34   35 ar
  71   34   39 ar
  72   35   36 ar
  73   35   77 1
  74   36   37 ar
  75   36   40 1
  76   37   38 ar
  77   37   42 1
  78   38   39 ar
  79   38   78 1
  80   39   79 1
  81   40   41 2
  82   40   80 1
  83   41   42 1
  84   42   81 1
  85   42   82 1
  86   43   44 2
  87   43   45 1
  88   45   83 1

#	End of record

