#	Name: ASD06660217
#	Creating user name:	WinNT
#	Creation time:	15. 06. 2019 21:08

#	Modifying user name:	WinNT
#	Modification time:	15. 06. 2019 21:08

#	Program:	/corina/corina34_cracker 3.40 0067  02.08.2006

@<TRIPOS>MOLECULE
ASD06660217
  67   70    0    0    0
SMALL
NO_CHARGES


@<TRIPOS>ATOM
   1 C1            -1.9785     1.7466     0.1599 C.2     
   2 C2            -1.6462     0.4811    -0.5878 C.3     
   3 C3            -2.3470     0.4935    -1.9479 C.3     
   4 O4            -1.0954     2.5010     0.4932 O.2     
   5 O5            -3.2559     2.0386     0.4509 O.3     
   6 C6            -2.1309    -0.8296    -2.6362 C.ar    
   7 C7            -2.9608    -1.8987    -2.3522 C.ar    
   8 C8            -2.7656    -3.1125    -2.9812 C.ar    
   9 C9            -1.7342    -3.2589    -3.9002 C.ar    
  10 C10           -0.9025    -2.1829    -4.1832 C.ar    
  11 C11           -1.1068    -0.9702    -3.5548 C.ar    
  12 N12           -1.5337    -4.4853    -4.5379 N.3     
  13 C13           -2.8201    -5.1115    -4.8956 C.3     
  14 C14           -2.2293    -6.4538    -4.4418 C.3     
  15 C15           -1.3441    -5.5677    -3.5543 C.3     
  16 C16           -3.2075    -7.3386    -3.6664 C.3     
  17 N17           -2.5804    -8.6333    -3.3892 N.pl3   
  18 C18           -3.2813    -9.6098    -2.6911 C.ar    
  19 C19           -4.5782    -9.3511    -2.2585 C.ar    
  20 C20           -5.2640   -10.3316    -1.5651 C.ar    
  21 C21           -4.6277   -11.5428    -1.3264 C.ar    
  22 C22           -3.3394   -11.7314    -1.7845 C.ar    
  23 N23           -2.7109   -10.7797    -2.4485 N.ar    
  24 C24            0.6026     0.0321     0.2358 C.2     
  25 C25            2.0504    -0.1551     0.0100 C.ar    
  26 C26            2.5642    -1.4330    -0.2219 C.ar    
  27 C27            3.9156    -1.6019    -0.4325 C.ar    
  28 C28            4.7651    -0.5059    -0.4139 C.ar    
  29 C29            4.2605     0.7648    -0.1842 C.ar    
  30 C30            2.9094     0.9457     0.0218 C.ar    
  31 O31            0.1325    -0.1432     1.3431 O.2     
  32 N32           -0.1971     0.3971    -0.7858 N.am    
  33 C33            2.3614     2.3283     0.2652 C.3     
  34 F34            6.0893    -0.6771    -0.6200 F       
  35 C35            1.6424    -2.6251    -0.2414 C.3     
  36 C36            1.0409    -2.7819    -1.6394 C.3     
  37 H37           -1.9849    -0.3804    -0.0124 H       
  38 H38           -3.4149     0.6585    -1.8049 H       
  39 H39           -1.9345     1.2941    -2.5618 H       
  40 H40           -3.4197     2.8613     0.9318 H       
  41 H41           -3.7622    -1.7843    -1.6373 H       
  42 H42           -3.4138    -3.9472    -2.7587 H       
  43 H43           -0.0997    -2.2933    -4.8972 H       
  44 H44           -0.4634    -0.1319    -3.7778 H       
  45 H45           -3.6536    -4.7736    -4.2799 H       
  46 H46           -3.0403    -5.0725    -5.9625 H       
  47 H47           -1.6865    -6.9888    -5.2211 H       
  48 H48           -0.3134    -5.9152    -3.4843 H       
  49 H49           -1.7838    -5.3515    -2.5806 H       
  50 H50           -3.4697    -6.8532    -2.7264 H       
  51 H51           -4.1086    -7.4911    -4.2603 H       
  52 H52           -1.6760    -8.8091    -3.6928 H       
  53 H53           -5.0428    -8.3974    -2.4612 H       
  54 H54           -6.2716   -10.1592    -1.2166 H       
  55 H55           -5.1356   -12.3289    -0.7875 H       
  56 H56           -2.8409   -12.6718    -1.6011 H       
  57 H57            4.3139    -2.5896    -0.6119 H       
  58 H58            4.9264     1.6149    -0.1708 H       
  59 H59            0.1868     0.6042    -1.6522 H       
  60 H60            2.3712     2.5399     1.3344 H       
  61 H61            2.9782     3.0605    -0.2558 H       
  62 H62            1.3384     2.3843    -0.1069 H       
  63 H63            2.2044    -3.5231     0.0152 H       
  64 H64            0.8423    -2.4776     0.4840 H       
  65 H65            0.3009    -3.5821    -1.6289 H       
  66 H66            0.5625    -1.8484    -1.9359 H       
  67 H67            1.8308    -3.0268    -2.3495 H       
@<TRIPOS>BOND
   1    1    2 1
   2    1    4 2
   3    1    5 1
   4    2    3 1
   5    2   32 1
   6    2   37 1
   7    3    6 1
   8    3   38 1
   9    3   39 1
  10    5   40 1
  11    6    7 ar
  12    6   11 ar
  13    7    8 ar
  14    7   41 1
  15    8    9 ar
  16    8   42 1
  17    9   10 ar
  18    9   12 1
  19   10   11 ar
  20   10   43 1
  21   11   44 1
  22   12   13 1
  23   12   15 1
  24   13   14 1
  25   13   45 1
  26   13   46 1
  27   14   15 1
  28   14   16 1
  29   14   47 1
  30   15   48 1
  31   15   49 1
  32   16   17 1
  33   16   50 1
  34   16   51 1
  35   17   18 1
  36   17   52 1
  37   18   19 ar
  38   18   23 ar
  39   19   20 ar
  40   19   53 1
  41   20   21 ar
  42   20   54 1
  43   21   22 ar
  44   21   55 1
  45   22   23 ar
  46   22   56 1
  47   24   25 1
  48   24   31 2
  49   24   32 am
  50   25   26 ar
  51   25   30 ar
  52   26   27 ar
  53   26   35 1
  54   27   28 ar
  55   27   57 1
  56   28   29 ar
  57   28   34 1
  58   29   30 ar
  59   29   58 1
  60   30   33 1
  61   32   59 1
  62   33   60 1
  63   33   61 1
  64   33   62 1
  65   35   36 1
  66   35   63 1
  67   35   64 1
  68   36   65 1
  69   36   66 1
  70   36   67 1

#	End of record

