#	Name: ASD01720143
#	Creating user name:	WinNT
#	Creation time:	15. 06. 2019 19:23

#	Modifying user name:	WinNT
#	Modification time:	15. 06. 2019 19:23

#	Program:	/corina/corina34_cracker 3.40 0067  02.08.2006

@<TRIPOS>MOLECULE
ASD01720143
 104  108    0    0    0
SMALL
NO_CHARGES


@<TRIPOS>ATOM
   1 C1             3.0430    -0.7784    -4.0485 C.ar    
   2 C2             2.9218    -1.2500    -5.3393 C.ar    
   3 C3             3.7720    -0.7804    -6.3232 C.ar    
   4 C4             4.7311     0.1597    -6.0097 C.ar    
   5 C5             4.8519     0.6407    -4.7114 C.ar    
   6 C6             4.0116     0.1640    -3.7306 C.ar    
   7 C7             4.1079     0.6176    -2.2955 C.3     
   8 C8             5.9035     1.6862    -4.4490 C.3     
   9 C9             6.2474     1.7503    -2.9617 C.3     
  10 N10            4.9839     1.7907    -2.2060 N.am    
  11 C11            7.0507     2.9933    -2.6775 C.2     
  12 N12            8.1676     2.9169    -1.9270 N.am    
  13 O13            6.6921     4.0624    -3.1240 O.2     
  14 C14            8.9485     4.1252    -1.6507 C.3     
  15 C15           10.1567     3.7646    -0.7841 C.3     
  16 C16           10.9723     5.0265    -0.4955 C.3     
  17 C17           12.1805     4.6659     0.3710 C.3     
  18 C18           12.9961     5.9278     0.6596 C.3     
  19 C19           14.1154     5.5956     1.6123 C.2     
  20 N20           13.5567     6.4437    -0.5917 N.am    
  21 N21           13.8682     5.4939     2.9333 N.am    
  22 O22           15.2388     5.4197     1.1903 O.2     
  23 C23           14.9564     5.1710     3.8595 C.3     
  24 C24           14.4110     5.1165     5.2880 C.3     
  25 C25           13.4329     3.9765     5.4091 C.ar    
  26 C26           15.5496     4.9062     6.2526 C.ar    
  27 C27           16.3002     3.7468     6.1937 C.ar    
  28 C28           17.3445     3.5539     7.0786 C.ar    
  29 C29           17.6385     4.5204     8.0221 C.ar    
  30 C30           16.8885     5.6801     8.0805 C.ar    
  31 C31           15.8469     5.8750     7.1927 C.ar    
  32 C32           12.8393     1.6984     4.9729 C.ar    
  33 C33           13.7366     2.7440     4.8617 C.ar    
  34 C34           12.2343     4.1618     6.0725 C.ar    
  35 C35           11.3370     3.1161     6.1836 C.ar    
  36 C36           11.6381     1.8853     5.6309 C.ar    
  37 C37           14.3902     5.6776    -1.3231 C.2     
  38 O38           14.6766     4.5590    -0.9446 O.2     
  39 O39           14.9054     6.1517    -2.4730 O.3     
  40 C40           15.7957     5.2716    -3.2087 C.3     
  41 C41           15.0479     3.9924    -3.5899 C.3     
  42 C42           16.2773     5.9781    -4.4775 C.3     
  43 C43           16.9999     4.9170    -2.3341 C.3     
  44 C44            4.6462     2.8620    -1.4612 C.2     
  45 O45            5.4294     3.7781    -1.3265 O.2     
  46 C46            3.2954     2.9215    -0.7957 C.3     
  47 C47            3.1674     4.2327    -0.0178 C.3     
  48 C48            1.8166     4.2922     0.6476 C.2     
  49 O49            1.0323     3.3749     0.5128 O.2     
  50 C50            1.4625     5.4155     1.4286 C.2     
  51 C51            1.5692     7.3610     2.4386 C.2     
  52 O52            2.2320     6.5016     1.6555 O.3     
  53 C53            0.2656     5.6014     2.0912 C.2     
  54 C54            0.3531     6.8452     2.7305 C.2     
  55 H55            2.3763    -1.1418    -3.2804 H       
  56 H56            2.1662    -1.9832    -5.5800 H       
  57 H57            3.6856    -1.1491    -7.3347 H       
  58 H58            5.3944     0.5252    -6.7798 H       
  59 H59            3.1146     0.8779    -1.9300 H       
  60 H60            4.5179    -0.1885    -1.6871 H       
  61 H61            6.8023     1.4405    -5.0145 H       
  62 H62            5.5314     2.6581    -4.7731 H       
  63 H63            6.8201     0.8675    -2.6774 H       
  64 H64            8.4544     2.0619    -1.5699 H       
  65 H65            9.2916     4.5589    -2.5900 H       
  66 H66            8.3256     4.8476    -1.1231 H       
  67 H67            9.8137     3.3310     0.1552 H       
  68 H68           10.7796     3.0422    -1.3117 H       
  69 H69           11.3153     5.4601    -1.4349 H       
  70 H70           10.3494     5.7489     0.0321 H       
  71 H71           11.8375     4.2322     1.3104 H       
  72 H72           12.8034     3.9435    -0.1565 H       
  73 H73           12.3503     6.6833     1.1071 H       
  74 H74           13.3281     7.3366    -0.8938 H       
  75 H75           12.9698     5.6346     3.2708 H       
  76 H76           15.3824     4.2029     3.5961 H       
  77 H77           15.7285     5.9376     3.7943 H       
  78 H78           13.9066     6.0544     5.5203 H       
  79 H79           16.0705     2.9917     5.4565 H       
  80 H80           17.9305     2.6478     7.0330 H       
  81 H81           18.4539     4.3693     8.7139 H       
  82 H82           17.1179     6.4351     8.8178 H       
  83 H83           15.2632     6.7827     7.2359 H       
  84 H84           13.0763     0.7356     4.5446 H       
  85 H85           14.6748     2.5982     4.3470 H       
  86 H86           11.9991     5.1233     6.5043 H       
  87 H87           10.4009     3.2606     6.7024 H       
  88 H88           10.9371     1.0684     5.7177 H       
  89 H89           14.1900     4.2450    -4.2130 H       
  90 H90           15.7161     3.3317    -4.1422 H       
  91 H91           14.7047     3.4891    -2.6860 H       
  92 H92           16.8100     6.8894    -4.2060 H       
  93 H93           16.9456     5.3174    -5.0298 H       
  94 H94           15.4194     6.2307    -5.1007 H       
  95 H95           16.6567     4.4138    -1.4301 H       
  96 H96           17.6681     4.2564    -2.8864 H       
  97 H97           17.5326     5.8284    -2.0625 H       
  98 H98            2.5142     2.8713    -1.5542 H       
  99 H99            3.1907     2.0806    -0.1102 H       
 100 H100           3.9486     4.2829     0.7407 H       
 101 H101           3.2721     5.0736    -0.7034 H       
 102 H102           1.9440     8.3145     2.7805 H       
 103 H103          -0.5736     4.9219     2.1120 H       
 104 H104          -0.4081     7.3058     3.3428 H       
@<TRIPOS>BOND
   1    1    2 ar
   2    1    6 ar
   3    1   55 1
   4    2    3 ar
   5    2   56 1
   6    3    4 ar
   7    3   57 1
   8    4    5 ar
   9    4   58 1
  10    5    6 ar
  11    5    8 1
  12    6    7 1
  13    7   10 1
  14    7   59 1
  15    7   60 1
  16    8    9 1
  17    8   61 1
  18    8   62 1
  19    9   10 1
  20    9   11 1
  21    9   63 1
  22   10   44 am
  23   11   12 am
  24   11   13 2
  25   12   14 1
  26   12   64 1
  27   14   15 1
  28   14   65 1
  29   14   66 1
  30   15   16 1
  31   15   67 1
  32   15   68 1
  33   16   17 1
  34   16   69 1
  35   16   70 1
  36   17   18 1
  37   17   71 1
  38   17   72 1
  39   18   19 1
  40   18   20 1
  41   18   73 1
  42   19   21 am
  43   19   22 2
  44   20   37 am
  45   20   74 1
  46   21   23 1
  47   21   75 1
  48   23   24 1
  49   23   76 1
  50   23   77 1
  51   24   25 1
  52   24   26 1
  53   24   78 1
  54   25   34 ar
  55   25   33 ar
  56   26   27 ar
  57   26   31 ar
  58   27   28 ar
  59   27   79 1
  60   28   29 ar
  61   28   80 1
  62   29   30 ar
  63   29   81 1
  64   30   31 ar
  65   30   82 1
  66   31   83 1
  67   32   33 ar
  68   32   36 ar
  69   32   84 1
  70   33   85 1
  71   34   35 ar
  72   34   86 1
  73   35   36 ar
  74   35   87 1
  75   36   88 1
  76   37   38 2
  77   37   39 1
  78   39   40 1
  79   40   41 1
  80   40   42 1
  81   40   43 1
  82   41   89 1
  83   41   90 1
  84   41   91 1
  85   42   92 1
  86   42   93 1
  87   42   94 1
  88   43   95 1
  89   43   96 1
  90   43   97 1
  91   44   45 2
  92   44   46 1
  93   46   47 1
  94   46   98 1
  95   46   99 1
  96   47   48 1
  97   47  100 1
  98   47  101 1
  99   48   49 2
 100   48   50 1
 101   50   53 2
 102   50   52 1
 103   51   52 1
 104   51   54 2
 105   51  102 1
 106   53   54 1
 107   53  103 1
 108   54  104 1

#	End of record

