#	Name: ASD01150034
#	Creating user name:	WinNT
#	Creation time:	15. 06. 2019 19:03

#	Modifying user name:	WinNT
#	Modification time:	15. 06. 2019 19:03

#	Program:	/corina/corina34_cracker 3.40 0067  02.08.2006

@<TRIPOS>MOLECULE
ASD01150034
  56   58    0    0    0
SMALL
NO_CHARGES


@<TRIPOS>ATOM
   1 C1            -0.0158     1.3138     0.0093 C.ar    
   2 N2             0.0021    -0.0041     0.0020 N.ar    
   3 C3            -1.1219    -0.7042     0.0090 C.ar    
   4 C4            -2.3393    -0.0282     0.0242 C.ar    
   5 C5            -2.3161     1.3789     0.0316 C.ar    
   6 N6            -1.1413     1.9993     0.0291 N.ar    
   7 C7            -3.6236    -0.7699     0.0320 C.ar    
   8 C8            -3.8505    -1.7855    -0.8952 C.ar    
   9 C9            -5.0472    -2.4726    -0.8829 C.ar    
  10 C10           -6.0208    -2.1548     0.0469 C.ar    
  11 C11           -5.8011    -1.1479     0.9695 C.ar    
  12 C12           -4.6059    -0.4579     0.9703 C.ar    
  13 C13           -7.3260    -2.9082     0.0545 C.3     
  14 F14           -7.2169    -4.0215     0.8947 F       
  15 F15           -8.3452    -2.0706     0.5202 F       
  16 F16           -7.6274    -3.3319    -1.2442 F       
  17 C17            1.2930     2.0608     0.0008 C.3     
  18 N18           -3.4950     2.1028     0.0467 N.pl3   
  19 C19           -3.4553     3.5672     0.0542 C.3     
  20 C20           -4.7541     4.1157    -0.5401 C.3     
  21 C21           -4.7127     5.6451    -0.5322 C.3     
  22 C22           -4.5594     6.1438     0.9061 C.3     
  23 C23           -3.2606     5.5953     1.5004 C.3     
  24 C24           -3.3021     4.0659     1.4925 C.3     
  25 C25           -4.5179     7.6732     0.9139 C.3     
  26 C26           -5.8168     8.2216     0.3196 C.3     
  27 C27           -4.3647     8.1719     2.3522 C.3     
  28 C28           -3.3309     8.1555     0.0777 C.3     
  29 H29           -1.0948    -1.7838     0.0026 H       
  30 H30           -3.0913    -2.0340    -1.6220 H       
  31 H31           -5.2241    -3.2598    -1.6009 H       
  32 H32           -6.5647    -0.9039     1.6932 H       
  33 H33           -4.4354     0.3282     1.6911 H       
  34 H34            1.5987     2.2464    -1.0289 H       
  35 H35            1.1723     3.0111     0.5209 H       
  36 H36            2.0546     1.4652     0.5042 H       
  37 H37           -4.3479     1.6407     0.0524 H       
  38 H38           -2.6096     3.9108    -0.5415 H       
  39 H39           -4.8633     3.7604    -1.5647 H       
  40 H40           -5.5998     3.7721     0.0557 H       
  41 H41           -3.8670     5.9887    -1.1280 H       
  42 H42           -5.6380     6.0358    -0.9556 H       
  43 H43           -5.4051     5.8002     1.5018 H       
  44 H44           -2.4149     5.9389     0.9046 H       
  45 H45           -3.1514     5.9506     2.5250 H       
  46 H46           -4.1477     3.7223     2.0883 H       
  47 H47           -2.3768     3.6752     1.9159 H       
  48 H48           -6.6624     7.8781     0.9153 H       
  49 H49           -5.7872     9.3112     0.3252 H       
  50 H50           -5.9259     7.8664    -0.7051 H       
  51 H51           -3.4394     7.7812     2.7756 H       
  52 H52           -4.3352     9.2615     2.3578 H       
  53 H53           -5.2104     7.8283     2.9479 H       
  54 H54           -3.4401     7.8002    -0.9470 H       
  55 H55           -3.3014     9.2451     0.0833 H       
  56 H56           -2.4056     7.7648     0.5011 H       
@<TRIPOS>BOND
   1    1    2 ar
   2    1   17 1
   3    1    6 ar
   4    2    3 ar
   5    3    4 ar
   6    3   29 1
   7    4    5 ar
   8    4    7 1
   9    5    6 ar
  10    5   18 1
  11    7    8 ar
  12    7   12 ar
  13    8    9 ar
  14    8   30 1
  15    9   10 ar
  16    9   31 1
  17   10   11 ar
  18   10   13 1
  19   11   12 ar
  20   11   32 1
  21   12   33 1
  22   13   14 1
  23   13   15 1
  24   13   16 1
  25   17   34 1
  26   17   35 1
  27   17   36 1
  28   18   19 1
  29   18   37 1
  30   19   20 1
  31   19   24 1
  32   19   38 1
  33   20   21 1
  34   20   39 1
  35   20   40 1
  36   21   22 1
  37   21   41 1
  38   21   42 1
  39   22   23 1
  40   22   25 1
  41   22   43 1
  42   23   24 1
  43   23   44 1
  44   23   45 1
  45   24   46 1
  46   24   47 1
  47   25   26 1
  48   25   27 1
  49   25   28 1
  50   26   48 1
  51   26   49 1
  52   26   50 1
  53   27   51 1
  54   27   52 1
  55   27   53 1
  56   28   54 1
  57   28   55 1
  58   28   56 1

#	End of record

