#	Name: ASD01911330
#	Creating user name:	WinNT
#	Creation time:	15. 06. 2019 19:57

#	Modifying user name:	WinNT
#	Modification time:	15. 06. 2019 19:57

#	Program:	/corina/corina34_cracker 3.40 0067  02.08.2006

@<TRIPOS>MOLECULE
ASD01911330
  38   40    0    0    0
SMALL
NO_CHARGES


@<TRIPOS>ATOM
   1 C1            -0.0168     1.3844     0.0097 C.ar    
   2 C2             0.0021    -0.0041     0.0020 C.ar    
   3 C3            -1.2088    -0.6808     0.0099 C.ar    
   4 C4            -2.3941     0.0536     0.0281 C.ar    
   5 N5            -2.3666     1.3762     0.0335 N.ar    
   6 C6            -1.2282     2.0451     0.0305 C.ar    
   7 O7            -1.2251    -2.0386    -0.0048 O.3     
   8 C8            -2.4188    -2.6932     0.4330 C.3     
   9 C9            -3.6203    -2.0546    -0.2781 C.3     
  10 N10           -3.6198    -0.6181     0.0452 N.am    
  11 C11            1.2738     2.1625     0.0015 C.3     
  12 O12            1.6688     2.4157    -1.3483 O.3     
  13 C13            2.8209     3.1123    -1.5336 C.ar    
  14 C14            3.2638     3.3937    -2.8179 C.ar    
  15 C15            4.4353     4.1019    -3.0036 C.ar    
  16 C16            5.1661     4.5303    -1.9109 C.ar    
  17 C17            4.7271     4.2508    -0.6299 C.ar    
  18 C18            3.5531     3.5482    -0.4388 C.ar    
  19 S19           -5.0249     0.1754     0.4172 S.o2    
  20 C20           -5.1752     0.0100     2.2174 C.3     
  21 O21           -4.7692     1.5269     0.0602 O.2     
  22 O22           -6.0364    -0.5768    -0.2388 O.2     
  23 H23            0.9372    -0.5442    -0.0101 H       
  24 H24           -1.2455     3.1249     0.0352 H       
  25 H25           -2.3672    -3.7529     0.1833 H       
  26 H26           -2.5266    -2.5742     1.5111 H       
  27 H27           -3.5273    -2.1909    -1.3555 H       
  28 H28           -4.5445    -2.5124     0.0747 H       
  29 H29            1.1304     3.1095     0.5218 H       
  30 H30            2.0493     1.5852     0.5049 H       
  31 H31            2.6935     3.0589    -3.6717 H       
  32 H32            4.7807     4.3208    -4.0032 H       
  33 H33            6.0817     5.0839    -2.0581 H       
  34 H34            5.3001     4.5859     0.2220 H       
  35 H35            3.2105     3.3302     0.5620 H       
  36 H36           -4.3101     0.4673     2.6977 H       
  37 H37           -6.0838     0.5096     2.5535 H       
  38 H38           -5.2219    -1.0462     2.4825 H       
@<TRIPOS>BOND
   1    1    2 ar
   2    1   11 1
   3    1    6 ar
   4    2    3 ar
   5    2   23 1
   6    3    4 ar
   7    3    7 1
   8    4    5 ar
   9    4   10 1
  10    5    6 ar
  11    6   24 1
  12    7    8 1
  13    8    9 1
  14    8   25 1
  15    8   26 1
  16    9   10 1
  17    9   27 1
  18    9   28 1
  19   10   19 am
  20   11   12 1
  21   11   29 1
  22   11   30 1
  23   12   13 1
  24   13   14 ar
  25   13   18 ar
  26   14   15 ar
  27   14   31 1
  28   15   16 ar
  29   15   32 1
  30   16   17 ar
  31   16   33 1
  32   17   18 ar
  33   17   34 1
  34   18   35 1
  35   19   20 1
  36   19   21 2
  37   19   22 2
  38   20   36 1
  39   20   37 1
  40   20   38 1

#	End of record

