#	Name: ASD01813061
#	Creating user name:	WinNT
#	Creation time:	15. 06. 2019 19:29

#	Modifying user name:	WinNT
#	Modification time:	15. 06. 2019 19:29

#	Program:	/corina/corina34_cracker 3.40 0067  02.08.2006

@<TRIPOS>MOLECULE
ASD01813061
  51   54    0    0    0
SMALL
NO_CHARGES


@<TRIPOS>ATOM
   1 C1            -1.9066     1.4014     0.0375 C.2     
   2 C2            -2.0105     0.0627     0.0828 C.2     
   3 N3            -0.9003    -0.7284    -0.0086 N.pl3   
   4 C4             0.3411    -0.2442    -0.1333 C.2     
   5 C5             0.5525     1.1197    -0.1789 C.2     
   6 C6            -0.6215     1.9978    -0.0941 C.2     
   7 O7            -0.4971     3.2118    -0.1282 O.2     
   8 C8            -1.0779    -2.1820     0.0326 C.3     
   9 C9            -0.8981    -2.6702     1.4469 C.ar    
  10 C10           -3.0929     2.3253     0.1132 C.3     
  11 C11           -4.3117     1.5968     0.6754 C.3     
  12 C12           -4.4910     0.2908    -0.1085 C.3     
  13 C13           -3.3353    -0.6415     0.2450 C.3     
  14 C14           -2.0038    -2.8622     2.2555 C.ar    
  15 C15           -1.8448    -3.3092     3.5516 C.ar    
  16 C16           -0.5678    -3.5670     4.0451 C.ar    
  17 C17            0.5425    -3.3719     3.2264 C.ar    
  18 C18            0.3717    -2.9300     1.9300 C.ar    
  19 C19           -0.3906    -4.0475     5.4384 C.2     
  20 O20           -2.7743     3.4316     0.9597 O.3     
  21 C21            0.0933    -5.2533     5.8604 C.2     
  22 O22            0.0633    -5.2215     7.1997 O.3     
  23 N23           -0.3680    -4.1717     7.6150 N.2     
  24 C24           -0.6790    -3.3581     6.6497 C.2     
  25 C25            0.5658    -6.3916     4.9932 C.3     
  26 C26           -1.2430    -1.9672     6.7860 C.3     
  27 C27            1.9087     1.6746    -0.3127 C.2     
  28 O28            2.8659     0.9291    -0.3850 O.2     
  29 O29            2.0894     3.0095    -0.3550 O.3     
  30 H30            1.1797    -0.9217    -0.1980 H       
  31 H31           -2.0795    -2.4356    -0.3148 H       
  32 H32           -0.3386    -2.6568    -0.6124 H       
  33 H33           -3.3247     2.6941    -0.8860 H       
  34 H34           -4.1528     1.3739     1.7305 H       
  35 H35           -5.1985     2.2200     0.5600 H       
  36 H36           -5.4370    -0.1758     0.1662 H       
  37 H37           -4.4806     0.4998    -1.1782 H       
  38 H38           -3.3622    -1.5111    -0.4116 H       
  39 H39           -3.4427    -0.9700     1.2788 H       
  40 H40           -2.9933    -2.6617     1.8720 H       
  41 H41           -2.7088    -3.4584     4.1822 H       
  42 H42            1.5347    -3.5700     3.6042 H       
  43 H43            1.2316    -2.7788     1.2944 H       
  44 H44           -3.4924     4.0718     1.0573 H       
  45 H45            1.6319    -6.2798     4.7960 H       
  46 H46            0.3883    -7.3369     5.5061 H       
  47 H47            0.0188    -6.3815     4.0505 H       
  48 H48           -0.4261    -1.2473     6.8365 H       
  49 H49           -1.8714    -1.7438     5.9239 H       
  50 H50           -1.8393    -1.9046     7.6963 H       
  51 H51            2.9986     3.3269    -0.4436 H       
@<TRIPOS>BOND
   1    1    2 2
   2    1   10 1
   3    1    6 1
   4    2    3 1
   5    2   13 1
   6    3    4 1
   7    3    8 1
   8    4    5 2
   9    4   30 1
  10    5    6 1
  11    5   27 1
  12    6    7 2
  13    8    9 1
  14    8   31 1
  15    8   32 1
  16    9   14 ar
  17    9   18 ar
  18   10   11 1
  19   10   20 1
  20   10   33 1
  21   11   12 1
  22   11   34 1
  23   11   35 1
  24   12   13 1
  25   12   36 1
  26   12   37 1
  27   13   38 1
  28   13   39 1
  29   14   15 ar
  30   14   40 1
  31   15   16 ar
  32   15   41 1
  33   16   17 ar
  34   16   19 1
  35   17   18 ar
  36   17   42 1
  37   18   43 1
  38   19   21 2
  39   19   24 1
  40   20   44 1
  41   21   22 1
  42   21   25 1
  43   22   23 1
  44   23   24 2
  45   24   26 1
  46   25   45 1
  47   25   46 1
  48   25   47 1
  49   26   48 1
  50   26   49 1
  51   26   50 1
  52   27   28 2
  53   27   29 1
  54   29   51 1

#	End of record

