#	Name: ASD05430741
#	Creating user name:	WinNT
#	Creation time:	15. 06. 2019 21:00

#	Modifying user name:	WinNT
#	Modification time:	15. 06. 2019 21:00

#	Program:	/corina/corina34_cracker 3.40 0067  02.08.2006

@<TRIPOS>MOLECULE
ASD05430741
  65   69    0    0    0
SMALL
NO_CHARGES


@<TRIPOS>ATOM
   1 C1            -0.9871     0.6032     2.0533 C.2     
   2 C2            -1.6215    -0.5768     2.4600 C.2     
   3 N3            -2.8654    -0.8422     2.0133 N.2     
   4 C4            -3.4856    -0.0135     1.2071 C.2     
   5 N5            -2.9100     1.1475     0.7827 N.am    
   6 C6            -1.6665     1.4819     1.1937 C.2     
   7 O7            -1.1433     2.5186     0.8198 O.2     
   8 C8            -3.6447     2.0390    -0.1182 C.3     
   9 C9            -3.2957     3.4928     0.2064 C.3     
  10 C10           -3.2633     1.7373    -1.5446 C.ar    
  11 C11           -4.2436     1.6292    -2.5131 C.ar    
  12 C12           -2.5626     1.1827    -4.1648 C.ar    
  13 C13           -1.5807     1.2975    -3.1934 C.ar    
  14 C14           -1.9332     1.5747    -1.8837 C.ar    
  15 N15            0.2558     0.6071     2.6587 N.pl3   
  16 C16            0.3412    -0.5368     3.3955 C.2     
  17 N17           -0.7726    -1.2262     3.2696 N.2     
  18 C18            1.5057    -0.9404     4.2107 C.ar    
  19 C19            1.4772    -2.1395     4.9252 C.ar    
  20 C20            2.5692    -2.5134     5.6863 C.ar    
  21 C21            3.6954    -1.6932     5.7388 C.ar    
  22 C22            3.7227    -0.5007     5.0277 C.ar    
  23 C23            2.6388    -0.1259     4.2632 C.ar    
  24 N24            4.8016    -2.0727     6.5107 N.pl3   
  25 C25            4.7809    -2.4769     7.8074 C.2     
  26 N26            6.0032    -2.7451     8.1787 N.2     
  27 C27            6.8377    -2.5264     7.1517 C.2     
  28 C28            6.1085    -2.1118     6.0983 C.2     
  29 C29            8.3323    -2.7181     7.1713 C.3     
  30 N30           -4.7520    -0.3248     0.7775 N.pl3   
  31 C31           -5.3236    -1.6405     1.0750 C.3     
  32 C32           -6.8507    -1.5451     1.0736 C.3     
  33 C33           -4.8744    -2.6442     0.0112 C.3     
  34 C34           -3.8953     1.3517    -3.8238 C.ar    
  35 F35           -4.8539     1.2452    -4.7698 F       
  36 F36           -0.2806     1.1387    -3.5244 F       
  37 F37           -2.2207     0.9123    -5.4436 F       
  38 O38            2.5446    -3.6802     6.3836 O.3     
  39 C39            1.3582    -4.4705     6.2842 C.3     
  40 H40           -4.7158     1.8847     0.0118 H       
  41 H41           -2.4736     3.8200    -0.4302 H       
  42 H42           -4.1664     4.1239     0.0285 H       
  43 H43           -2.9984     3.5703     1.2523 H       
  44 H44           -5.2819     1.7609    -2.2469 H       
  45 H45           -1.1683     1.6643    -1.1265 H       
  46 H46            0.9370     1.2926     2.5751 H       
  47 H47            0.6039    -2.7735     4.8837 H       
  48 H48            4.5967     0.1323     5.0705 H       
  49 H49            2.6628     0.8019     3.7109 H       
  50 H50            3.9007    -2.5617     8.4275 H       
  51 H51            6.4823    -1.8526     5.1187 H       
  52 H52            8.5719    -3.7379     6.8701 H       
  53 H53            8.7977    -2.0161     6.4794 H       
  54 H54            8.7084    -2.5388     8.1785 H       
  55 H55           -5.2681     0.3263     0.2769 H       
  56 H56           -4.9812    -1.9722     2.0552 H       
  57 H57           -7.1931    -1.2134     0.0935 H       
  58 H58           -7.2760    -2.5240     1.2950 H       
  59 H59           -7.1707    -0.8301     1.8315 H       
  60 H60           -5.2997    -3.6230     0.2325 H       
  61 H61           -5.2169    -2.3124    -0.9690 H       
  62 H62           -3.7865    -2.7121     0.0121 H       
  63 H63            1.1926    -4.7479     5.2431 H       
  64 H64            1.4703    -5.3717     6.8869 H       
  65 H65            0.5066    -3.8947     6.6466 H       
@<TRIPOS>BOND
   1    1    2 2
   2    1   15 1
   3    1    6 1
   4    2    3 1
   5    2   17 1
   6    3    4 2
   7    4    5 1
   8    4   30 1
   9    5    6 am
  10    5    8 1
  11    6    7 2
  12    8    9 1
  13    8   10 1
  14    8   40 1
  15    9   41 1
  16    9   42 1
  17    9   43 1
  18   10   11 ar
  19   10   14 ar
  20   11   34 ar
  21   11   44 1
  22   12   13 ar
  23   12   37 1
  24   12   34 ar
  25   13   14 ar
  26   13   36 1
  27   14   45 1
  28   15   16 1
  29   15   46 1
  30   16   17 2
  31   16   18 1
  32   18   19 ar
  33   18   23 ar
  34   19   20 ar
  35   19   47 1
  36   20   21 ar
  37   20   38 1
  38   21   22 ar
  39   21   24 1
  40   22   23 ar
  41   22   48 1
  42   23   49 1
  43   24   25 1
  44   24   28 1
  45   25   26 2
  46   25   50 1
  47   26   27 1
  48   27   28 2
  49   27   29 1
  50   28   51 1
  51   29   52 1
  52   29   53 1
  53   29   54 1
  54   30   31 1
  55   30   55 1
  56   31   32 1
  57   31   33 1
  58   31   56 1
  59   32   57 1
  60   32   58 1
  61   32   59 1
  62   33   60 1
  63   33   61 1
  64   33   62 1
  65   34   35 1
  66   38   39 1
  67   39   63 1
  68   39   64 1
  69   39   65 1

#	End of record

