#	Name: ASD01208591
#	Creating user name:	WinNT
#	Creation time:	15. 06. 2019 19:10

#	Modifying user name:	WinNT
#	Modification time:	15. 06. 2019 19:10

#	Program:	/corina/corina34_cracker 3.40 0067  02.08.2006

@<TRIPOS>MOLECULE
ASD01208591
  81   83    0    0    0
SMALL
NO_CHARGES


@<TRIPOS>ATOM
   1 N1             1.9362    -0.7807    -2.5330 N.pl3   
   2 C2             2.9026    -1.7618    -2.5051 C.2     
   3 C3             4.1282    -1.1479    -2.3327 C.2     
   4 C4             3.9005     0.2242    -2.2552 C.2     
   5 C5             2.5433     0.4310    -2.3807 C.2     
   6 C6             2.6716    -3.2015    -2.6347 C.2     
   7 O7             3.6102    -3.9742    -2.5943 O.2     
   8 O8             1.4176    -3.6715    -2.7989 O.3     
   9 C9             1.8621     1.7425    -2.3547 C.ar    
  10 C10            0.4752     1.8136    -2.4933 C.ar    
  11 C11           -0.1589     3.0444    -2.4684 C.ar    
  12 C12            0.5827     4.2061    -2.3064 C.ar    
  13 C13            1.9615     4.1400    -2.1688 C.ar    
  14 C14            2.6032     2.9125    -2.1858 C.ar    
  15 O15            2.6831     5.2808    -2.0108 O.3     
  16 Si16           2.7578     5.8105    -0.4701 Si      
  17 C17            1.0811     6.4293     0.0558 C.3     
  18 C18            1.2077     7.1798     1.3831 C.3     
  19 C19            0.5276     7.3736    -1.0132 C.3     
  20 C20            3.2805     4.4111     0.6431 C.3     
  21 C21            4.6199     3.8496     0.1619 C.3     
  22 C22            3.4290     4.9272     2.0758 C.3     
  23 C23            3.9971     7.1962    -0.3492 C.3     
  24 C24            5.3949     6.6593    -0.6637 C.3     
  25 C25            3.6348     8.2934    -1.3521 C.3     
  26 O26           -1.5094     3.1148    -2.6033 O.3     
  27 C27           -2.2051     1.8847    -2.8154 C.3     
  28 C28           -3.4865     2.1535    -3.6072 C.3     
  29 C29           -2.5617     1.2610    -1.4646 C.3     
  30 O30           -4.3706     2.9577    -2.8239 O.3     
  31 C31           -5.6042     3.2684    -3.4748 C.3     
  32 C32            1.2659    -5.0874    -2.9186 C.3     
  33 C33           -0.1927    -5.4232    -3.0941 C.ar    
  34 C34           -0.7388    -5.4900    -4.3623 C.ar    
  35 C35           -2.0768    -5.7981    -4.5233 C.ar    
  36 C36           -2.8685    -6.0397    -3.4162 C.ar    
  37 C37           -2.3222    -5.9738    -2.1481 C.ar    
  38 C38           -0.9832    -5.6700    -1.9873 C.ar    
  39 H39            0.9840    -0.9268    -2.6462 H       
  40 H40            5.0868    -1.6413    -2.2691 H       
  41 H41            4.6518     0.9883    -2.1203 H       
  42 H42           -0.1026     0.9101    -2.6202 H       
  43 H43            0.0850     5.1644    -2.2878 H       
  44 H44            3.6761     2.8615    -2.0734 H       
  45 H45            0.4042     5.5840     0.1795 H       
  46 H46            1.8391     8.0576     1.2454 H       
  47 H47            0.2192     7.4925     1.7194 H       
  48 H48            1.6551     6.5240     2.1300 H       
  49 H49            0.5290     6.8692    -1.9795 H       
  50 H50           -0.4919     7.6587    -0.7536 H       
  51 H51            1.1515     8.2657    -1.0682 H       
  52 H52            2.5262     3.6246     0.6167 H       
  53 H53            5.4085     4.5776     0.3520 H       
  54 H54            4.8406     2.9266     0.6980 H       
  55 H55            4.5648     3.6445    -0.9072 H       
  56 H56            2.4464     5.1779     2.4754 H       
  57 H57            3.8868     4.1553     2.6944 H       
  58 H58            4.0598     5.8162     2.0781 H       
  59 H59            3.9846     7.6079     0.6600 H       
  60 H60            5.3424     5.9905    -1.5228 H       
  61 H61            6.0611     7.4914    -0.8912 H       
  62 H62            5.7769     6.1133     0.1990 H       
  63 H63            3.4837     7.8504    -2.3365 H       
  64 H64            2.7184     8.7896    -1.0324 H       
  65 H65            4.4441     9.0219    -1.4019 H       
  66 H66           -1.5690     1.1994    -3.3755 H       
  67 H67           -3.2399     2.6782    -4.5303 H       
  68 H68           -3.9715     1.2070    -3.8457 H       
  69 H69           -1.6489     1.0695    -0.9006 H       
  70 H70           -3.1979     1.9463    -0.9046 H       
  71 H71           -3.0924     0.3227    -1.6265 H       
  72 H72           -6.1332     2.3449    -3.7106 H       
  73 H73           -6.2189     3.8809    -2.8152 H       
  74 H74           -5.4015     3.8161    -4.3951 H       
  75 H75            1.8268    -5.4411    -3.7836 H       
  76 H76            1.6441    -5.5707    -2.0178 H       
  77 H77           -0.1203    -5.3013    -5.2272 H       
  78 H78           -2.5036    -5.8496    -5.5140 H       
  79 H79           -3.9140    -6.2797    -3.5419 H       
  80 H80           -2.9408    -6.1622    -1.2831 H       
  81 H81           -0.5555    -5.6221    -0.9967 H       
@<TRIPOS>BOND
   1    1    2 1
   2    1    5 1
   3    1   39 1
   4    2    3 2
   5    2    6 1
   6    3    4 1
   7    3   40 1
   8    4    5 2
   9    4   41 1
  10    5    9 1
  11    6    7 2
  12    6    8 1
  13    8   32 1
  14    9   10 ar
  15    9   14 ar
  16   10   11 ar
  17   10   42 1
  18   11   12 ar
  19   11   26 1
  20   12   13 ar
  21   12   43 1
  22   13   14 ar
  23   13   15 1
  24   14   44 1
  25   15   16 1
  26   16   17 1
  27   16   20 1
  28   16   23 1
  29   17   18 1
  30   17   19 1
  31   17   45 1
  32   18   46 1
  33   18   47 1
  34   18   48 1
  35   19   49 1
  36   19   50 1
  37   19   51 1
  38   20   21 1
  39   20   22 1
  40   20   52 1
  41   21   53 1
  42   21   54 1
  43   21   55 1
  44   22   56 1
  45   22   57 1
  46   22   58 1
  47   23   24 1
  48   23   25 1
  49   23   59 1
  50   24   60 1
  51   24   61 1
  52   24   62 1
  53   25   63 1
  54   25   64 1
  55   25   65 1
  56   26   27 1
  57   27   28 1
  58   27   29 1
  59   27   66 1
  60   28   30 1
  61   28   67 1
  62   28   68 1
  63   29   69 1
  64   29   70 1
  65   29   71 1
  66   30   31 1
  67   31   72 1
  68   31   73 1
  69   31   74 1
  70   32   33 1
  71   32   75 1
  72   32   76 1
  73   33   34 ar
  74   33   38 ar
  75   34   35 ar
  76   34   77 1
  77   35   36 ar
  78   35   78 1
  79   36   37 ar
  80   36   79 1
  81   37   38 ar
  82   37   80 1
  83   38   81 1

#	End of record

