#	Name: ASD02560265
#	Creating user name:	WinNT
#	Creation time:	15. 06. 2019 20:24

#	Modifying user name:	WinNT
#	Modification time:	15. 06. 2019 20:24

#	Program:	/corina/corina34_cracker 3.40 0067  02.08.2006

@<TRIPOS>MOLECULE
ASD02560265
  48   50    0    0    0
SMALL
NO_CHARGES


@<TRIPOS>ATOM
   1 N1            -0.0483     1.3396    -0.0049 N.ar    
   2 C2            -0.0512     0.0113    -0.0120 C.ar    
   3 C3             1.1667    -0.6666    -0.0093 C.ar    
   4 C4             2.3319     0.0772     0.0007 C.ar    
   5 N5             2.2539     1.3997     0.0074 N.ar    
   6 C6             1.0859     2.0102     0.0046 C.ar    
   7 O7            -1.2202    -0.6742    -0.0213 O.3     
   8 C8            -2.3764     0.0374    -0.0230 C.ar    
   9 C9            -4.7359     1.4903    -0.0266 C.ar    
  10 C10           -4.1425     1.1206     1.1834 C.ar    
  11 C11           -2.9693     0.3991     1.1807 C.ar    
  12 C12           -2.9607     0.4071    -1.2286 C.ar    
  13 C13           -4.1334     1.1295    -1.2349 C.ar    
  14 C14           -2.3279     0.0007     2.4849 C.3     
  15 C15           -2.3100     0.0174    -2.5308 C.3     
  16 C16           -5.9557     2.2405    -0.0285 C.1     
  17 N17           -6.9233     2.8357    -0.0300 N.1     
  18 S18            1.0397     3.7715     0.0132 S.o2    
  19 C19            1.0184     4.2152     1.7720 C.3     
  20 C20            0.9784     5.7152     1.9112 C.2     
  21 N21            0.9569     6.2780     3.1356 N.am    
  22 C22            1.0053     7.6715     3.2667 C.ar    
  23 O23            0.9655     6.4160     0.9213 O.2     
  24 C24            0.6048     9.8578     2.3669 C.ar    
  25 C25            0.5558     8.4832     2.2349 C.ar    
  26 C26            1.4988     8.2451     4.4338 C.ar    
  27 C27            1.5449     9.6213     4.5590 C.ar    
  28 C28            1.1005    10.4260     3.5256 C.ar    
  29 O29            2.2704     4.1572    -0.5835 O.2     
  30 O30           -0.2027     4.0925    -0.5972 O.2     
  31 F31            1.9320     7.4589     5.4434 F       
  32 H32            1.1992    -1.7461    -0.0145 H       
  33 H33            3.2939    -0.4138     0.0035 H       
  34 H34           -4.6049     1.3975     2.1194 H       
  35 H35           -4.5887     1.4132    -2.1722 H       
  36 H36           -2.7116    -0.9707     2.7968 H       
  37 H37           -1.2474    -0.0602     2.3548 H       
  38 H38           -2.5607     0.7449     3.2466 H       
  39 H39           -2.6918    -0.9517    -2.8520 H       
  40 H40           -2.5371     0.7668    -3.2890 H       
  41 H41           -1.2305    -0.0448    -2.3933 H       
  42 H42            0.1368     3.7827     2.2451 H       
  43 H43            1.9161     3.8293     2.2549 H       
  44 H44            0.9078     5.7179     3.9260 H       
  45 H45            0.2552    10.4894     1.5636 H       
  46 H46            0.1682     8.0408     1.3291 H       
  47 H47            1.9279    10.0682     5.4646 H       
  48 H48            1.1374    11.5007     3.6255 H       
@<TRIPOS>BOND
   1    1    2 ar
   2    1    6 ar
   3    2    3 ar
   4    2    7 1
   5    3    4 ar
   6    3   32 1
   7    4    5 ar
   8    4   33 1
   9    5    6 ar
  10    6   18 1
  11    7    8 1
  12    8   12 ar
  13    8   11 ar
  14    9   10 ar
  15    9   13 ar
  16    9   16 1
  17   10   11 ar
  18   10   34 1
  19   11   14 1
  20   12   13 ar
  21   12   15 1
  22   13   35 1
  23   14   36 1
  24   14   37 1
  25   14   38 1
  26   15   39 1
  27   15   40 1
  28   15   41 1
  29   16   17 3
  30   18   19 1
  31   18   29 2
  32   18   30 2
  33   19   20 1
  34   19   42 1
  35   19   43 1
  36   20   21 am
  37   20   23 2
  38   21   22 1
  39   21   44 1
  40   22   26 ar
  41   22   25 ar
  42   24   25 ar
  43   24   28 ar
  44   24   45 1
  45   25   46 1
  46   26   27 ar
  47   26   31 1
  48   27   28 ar
  49   27   47 1
  50   28   48 1

#	End of record

