#	Name: ASD08150981
#	Creating user name:	WinNT
#	Creation time:	15. 06. 2019 21:16

#	Modifying user name:	WinNT
#	Modification time:	15. 06. 2019 21:16

#	Program:	/corina/corina34_cracker 3.40 0067  02.08.2006

@<TRIPOS>MOLECULE
ASD08150981
  47   51    0    0    0
SMALL
NO_CHARGES


@<TRIPOS>ATOM
   1 N1            -0.0795     1.1475    -0.0841 N.2     
   2 C2            -0.0822    -0.1537    -0.1047 C.2     
   3 N3             1.1879    -0.6246     0.0487 N.pl3   
   4 C4             2.0173     0.4615     0.1706 C.ar    
   5 N5             3.3248     0.6297     0.3383 N.ar    
   6 C6             3.8406     1.8380     0.4220 C.ar    
   7 N7             3.1028     2.9305     0.3460 N.ar    
   8 C8             1.7860     2.8615     0.1787 C.ar    
   9 C9             1.1888     1.5932     0.0834 C.ar    
  10 N10            1.0210     4.0121     0.1007 N.pl3   
  11 C11            1.6613     5.3258     0.2027 C.3     
  12 C12            2.1078     5.7847    -1.1868 C.3     
  13 N13            0.3608     9.4938     2.7344 N.pl3   
  14 N14           -0.9205    10.0016     2.9807 N.2     
  15 C15           -1.8129     9.2213     2.4437 C.2     
  16 C16           -1.1480     8.1446     1.8078 C.ar    
  17 C17           -1.5920     7.0273     1.0852 C.ar    
  18 C18           -0.6800     6.1315     0.5760 C.ar    
  19 C19            0.6805     6.3200     0.7690 C.ar    
  20 C20            1.1450     7.4173     1.4803 C.ar    
  21 C21            0.2296     8.3411     2.0069 C.ar    
  22 C22            1.6228    10.0946     3.1732 C.3     
  23 C23            2.6007     7.6126     1.6824 C.ar    
  24 C24            3.2885     6.8328     2.6106 C.ar    
  25 C25            4.6458     7.0185     2.7956 C.ar    
  26 C26            5.3222     7.9781     2.0606 C.ar    
  27 C27            4.6429     8.7558     1.1374 C.ar    
  28 C28            3.2868     8.5727     0.9407 C.ar    
  29 F29            5.3077     9.6906     0.4237 F       
  30 F30            5.3135     6.2632     3.6950 F       
  31 Cl31          -3.2910     6.7745     0.8339 Cl      
  32 H32           -0.9611    -0.7697    -0.2251 H       
  33 H33            1.4560    -1.5566     0.0684 H       
  34 H34            4.9071     1.9396     0.5582 H       
  35 H35            0.0608     3.9487    -0.0215 H       
  36 H36            2.5289     5.2571     0.8590 H       
  37 H37            1.2402     5.8534    -1.8430 H       
  38 H38            2.5842     6.7622    -1.1109 H       
  39 H39            2.8172     5.0656    -1.5964 H       
  40 H40           -2.8821     9.3697     2.4778 H       
  41 H41           -1.0272     5.2728     0.0206 H       
  42 H42            1.9435     9.6269     4.1041 H       
  43 H43            2.3839     9.9406     2.4082 H       
  44 H44            1.4800    11.1632     3.3337 H       
  45 H45            2.7618     6.0848     3.1846 H       
  46 H46            6.3826     8.1207     2.2081 H       
  47 H47            2.7589     9.1762     0.2172 H       
@<TRIPOS>BOND
   1    1    2 2
   2    1    9 1
   3    2    3 1
   4    2   32 1
   5    3    4 1
   6    3   33 1
   7    4    5 ar
   8    4    9 ar
   9    5    6 ar
  10    6    7 ar
  11    6   34 1
  12    7    8 ar
  13    8    9 ar
  14    8   10 1
  15   10   11 1
  16   10   35 1
  17   11   12 1
  18   11   19 1
  19   11   36 1
  20   12   37 1
  21   12   38 1
  22   12   39 1
  23   13   14 1
  24   13   21 1
  25   13   22 1
  26   14   15 2
  27   15   16 1
  28   15   40 1
  29   16   17 ar
  30   16   21 ar
  31   17   18 ar
  32   17   31 1
  33   18   19 ar
  34   18   41 1
  35   19   20 ar
  36   20   21 ar
  37   20   23 1
  38   22   42 1
  39   22   43 1
  40   22   44 1
  41   23   24 ar
  42   23   28 ar
  43   24   25 ar
  44   24   45 1
  45   25   26 ar
  46   25   30 1
  47   26   27 ar
  48   26   46 1
  49   27   28 ar
  50   27   29 1
  51   28   47 1

#	End of record

