#	Name: ASD07990002
#	Creating user name:	WinNT
#	Creation time:	15. 06. 2019 21:14

#	Modifying user name:	WinNT
#	Modification time:	15. 06. 2019 21:14

#	Program:	/corina/corina34_cracker 3.40 0067  02.08.2006

@<TRIPOS>MOLECULE
ASD07990002
  26   28    0    0    0
SMALL
NO_CHARGES


@<TRIPOS>ATOM
   1 C1            -0.0186     1.5216     0.0104 C.3     
   2 C2             0.0021    -0.0041     0.0020 C.3     
   3 N3             1.3599    -0.5484    -0.0139 N.pl3   
   4 C4             2.3861     0.3453    -0.0189 C.2     
   5 N5             3.5758    -0.2090    -0.0324 N.2     
   6 C6             3.4601    -1.6673    -0.0384 C.3     
   7 C7             1.9453    -1.9200    -0.0268 C.3     
   8 C8             4.0812    -2.2414    -1.2857 C.ar    
   9 C9             4.7985    -3.4213    -1.2205 C.ar    
  10 C10            5.3682    -3.9479    -2.3646 C.ar    
  11 C11            5.2203    -3.2948    -3.5740 C.ar    
  12 C12            4.5022    -2.1154    -3.6393 C.ar    
  13 C13            3.9288    -1.5911    -2.4960 C.ar    
  14 S14            1.7337     1.9982    -0.0038 S.3     
  15 H15           -0.5233     1.9003    -0.8783 H       
  16 H16           -0.5062     1.8907     0.9127 H       
  17 H17           -0.5132    -0.3684     0.8908 H       
  18 H18           -0.5301    -0.3588    -0.8806 H       
  19 H19            3.9256    -2.0912     0.8514 H       
  20 H20            1.6550    -2.4682     0.8694 H       
  21 H21            1.6398    -2.4596    -0.9233 H       
  22 H22            4.9141    -3.9315    -0.2757 H       
  23 H23            5.9293    -4.8693    -2.3136 H       
  24 H24            5.6660    -3.7059    -4.4677 H       
  25 H25            4.3869    -1.6051    -4.5841 H       
  26 H26            3.3678    -0.6697    -2.5470 H       
@<TRIPOS>BOND
   1    1    2 1
   2    1   14 1
   3    1   15 1
   4    1   16 1
   5    2    3 1
   6    2   17 1
   7    2   18 1
   8    3    4 1
   9    3    7 1
  10    4    5 2
  11    4   14 1
  12    5    6 1
  13    6    7 1
  14    6    8 1
  15    6   19 1
  16    7   20 1
  17    7   21 1
  18    8    9 ar
  19    8   13 ar
  20    9   10 ar
  21    9   22 1
  22   10   11 ar
  23   10   23 1
  24   11   12 ar
  25   11   24 1
  26   12   13 ar
  27   12   25 1
  28   13   26 1

#	End of record

