#	Name: ASD01881628
#	Creating user name:	WinNT
#	Creation time:	15. 06. 2019 19:43

#	Modifying user name:	WinNT
#	Modification time:	15. 06. 2019 19:43

#	Program:	/corina/corina34_cracker 3.40 0067  02.08.2006

@<TRIPOS>MOLECULE
ASD01881628
  41   43    0    0    0
SMALL
NO_CHARGES


@<TRIPOS>ATOM
   1 N1            -0.0169     1.3985     0.0097 N.pl3   
   2 N2             0.0021    -0.0041     0.0020 N.2     
   3 N3             1.2207    -0.4156    -0.0118 N.2     
   4 C4             2.0691     0.6320    -0.0143 C.ar    
   5 C5             1.2974     1.8068    -0.0006 C.ar    
   6 C6             3.4673     0.7317    -0.0272 C.ar    
   7 C7             4.0623     1.9765    -0.0262 C.ar    
   8 C8             3.2842     3.1315    -0.0120 C.ar    
   9 C9             1.9202     3.0498     0.0001 C.ar    
  10 O10            5.4186     2.0765    -0.0386 O.3     
  11 C11            5.9721     3.3939    -0.0368 C.3     
  12 C12            7.4765     3.3068    -0.0517 C.ar    
  13 C13            8.0979     2.0703    -0.0643 C.ar    
  14 N14            8.2021     4.4109    -0.0581 N.ar    
  15 N15            9.4169     1.9940    -0.0772 N.ar    
  16 C16           10.1427     3.0984    -0.0782 C.ar    
  17 C17            9.5214     4.3345    -0.0711 C.ar    
  18 C18           -1.2024     2.2593     0.0203 C.3     
  19 C19           -1.6075     2.5516     1.4665 C.3     
  20 C20           -0.4570     3.2591     2.1853 C.3     
  21 C21           -2.8455     3.4505     1.4775 C.3     
  22 C22           -1.9251     1.2374     2.1827 C.3     
  23 Cl23           4.4446    -0.7030    -0.0436 Cl      
  24 H24            3.7627     4.0997    -0.0107 H       
  25 H25            1.3256     3.9513     0.0103 H       
  26 H26            5.6306     3.9327    -0.9207 H       
  27 H27            5.6476     3.9231     0.8592 H       
  28 H28            7.5048     1.1678    -0.0631 H       
  29 H29           11.2208     3.0360    -0.0884 H       
  30 H30           10.1145     5.2370    -0.0764 H       
  31 H31           -0.9761     3.1955    -0.4900 H       
  32 H32           -2.0220     1.7552    -0.4918 H       
  33 H33           -0.2308     4.1954     1.6750 H       
  34 H34           -0.7457     3.4674     3.2156 H       
  35 H35            0.4249     2.6187     2.1774 H       
  36 H36           -3.6651     2.9465     0.9654 H       
  37 H37           -3.1341     3.6588     2.5078 H       
  38 H38           -2.6193     4.3868     0.9672 H       
  39 H39           -1.0431     0.5970     2.1748 H       
  40 H40           -2.2137     1.4457     3.2130 H       
  41 H41           -2.7447     0.7333     1.6706 H       
@<TRIPOS>BOND
   1    1    2 1
   2    1    5 1
   3    1   18 1
   4    2    3 2
   5    3    4 1
   6    4    5 ar
   7    4    6 ar
   8    5    9 ar
   9    6    7 ar
  10    6   23 1
  11    7    8 ar
  12    7   10 1
  13    8    9 ar
  14    8   24 1
  15    9   25 1
  16   10   11 1
  17   11   12 1
  18   11   26 1
  19   11   27 1
  20   12   13 ar
  21   12   14 ar
  22   13   15 ar
  23   13   28 1
  24   14   17 ar
  25   15   16 ar
  26   16   17 ar
  27   16   29 1
  28   17   30 1
  29   18   19 1
  30   18   31 1
  31   18   32 1
  32   19   20 1
  33   19   21 1
  34   19   22 1
  35   20   33 1
  36   20   34 1
  37   20   35 1
  38   21   36 1
  39   21   37 1
  40   21   38 1
  41   22   39 1
  42   22   40 1
  43   22   41 1

#	End of record

