#	Name: ASD03330651
#	Creating user name:	WinNT
#	Creation time:	15. 06. 2019 20:37

#	Modifying user name:	WinNT
#	Modification time:	15. 06. 2019 20:37

#	Program:	/corina/corina34_cracker 3.40 0067  02.08.2006

@<TRIPOS>MOLECULE
ASD03330651
  57   59    0    0    0
SMALL
NO_CHARGES


@<TRIPOS>ATOM
   1 C1             0.1943     1.5048     1.0374 C.2     
   2 N2             0.2547     0.1897     1.3823 N.pl3   
   3 C3             1.4728     1.9236     0.8317 C.2     
   4 N4             2.2912     0.8662     1.0341 N.2     
   5 C5             1.5677    -0.1799     1.3592 C.2     
   6 C6             2.0889    -1.5324     1.6524 C.2     
   7 C7             1.8905     3.2855     0.4558 C.2     
   8 O8             1.0560     4.1568     0.3016 O.2     
   9 C9             3.6128     4.9201    -0.0910 C.3     
  10 N10            3.1974     3.5659     0.2828 N.am    
  11 C11            3.5284     5.0783    -1.6104 C.3     
  12 C12            2.0731     4.9298    -2.0586 C.3     
  13 C13            4.0460     6.4620    -2.0086 C.3     
  14 C14            4.3817     4.0014    -2.2835 C.3     
  15 C15            5.0317     5.1529     0.3603 C.2     
  16 N16            5.5510     6.3963     0.3363 N.am    
  17 O17            5.7062     4.2213     0.7450 O.2     
  18 C18            6.9530     6.6117     0.7029 C.3     
  19 C19           -0.8946    -0.6521     1.7261 C.3     
  20 C20           -1.9972    -0.4472     0.6825 C.3     
  21 C21           -2.8805     0.7278     1.0893 C.3     
  22 N22           -2.1015     1.7601     1.7758 N.3     
  23 C23           -1.0646     2.3205     0.8965 C.3     
  24 C24           -2.9757     2.8182     2.2996 C.3     
  25 C25            3.3036    -2.0378     1.3057 C.2     
  26 O26            3.3843    -3.2957     1.7600 O.3     
  27 C27            2.2579    -3.6444     2.4001 C.2     
  28 C28            1.4053    -2.6069     2.3838 C.2     
  29 H29            2.9557     5.6467     0.3870 H       
  30 H30            3.8629     2.8710     0.4058 H       
  31 H31            1.4651     5.6970    -1.5791 H       
  32 H32            2.0129     5.0425    -3.1411 H       
  33 H33            1.7043     3.9441    -1.7749 H       
  34 H34            5.0738     6.5781    -1.6649 H       
  35 H35            4.0118     6.5643    -3.0933 H       
  36 H36            3.4211     7.2291    -1.5514 H       
  37 H37            4.0130     3.0157    -1.9998 H       
  38 H38            4.3216     4.1142    -3.3660 H       
  39 H39            5.4185     4.1072    -1.9642 H       
  40 H40            4.9966     7.1486     0.0763 H       
  41 H41            7.1902     7.6727     0.6242 H       
  42 H42            7.1160     6.2780     1.7276 H       
  43 H43            7.5958     6.0448     0.0295 H       
  44 H44           -0.5903    -1.6987     1.7338 H       
  45 H45           -1.2688    -0.3732     2.7111 H       
  46 H46           -1.5446    -0.2417    -0.2875 H       
  47 H47           -2.6040    -1.3502     0.6143 H       
  48 H48           -3.3366     1.1578     0.1976 H       
  49 H49           -3.6663     0.3709     1.7551 H       
  50 H50           -0.8637     3.3531     1.1820 H       
  51 H51           -1.4068     2.2871    -0.1378 H       
  52 H52           -3.6844     2.3870     3.0067 H       
  53 H53           -2.3716     3.5718     2.8046 H       
  54 H54           -3.5199     3.2807     1.4761 H       
  55 H55            4.0723    -1.5139     0.7570 H       
  56 H56            2.0688    -4.6039     2.8585 H       
  57 H57            0.4158    -2.5719     2.8153 H       
@<TRIPOS>BOND
   1    1    2 1
   2    1    3 2
   3    1   23 1
   4    2   19 1
   5    2    5 1
   6    3    4 1
   7    3    7 1
   8    4    5 2
   9    5    6 1
  10    6   25 2
  11    6   28 1
  12    7    8 2
  13    7   10 am
  14    9   10 1
  15    9   11 1
  16    9   15 1
  17    9   29 1
  18   10   30 1
  19   11   12 1
  20   11   13 1
  21   11   14 1
  22   12   31 1
  23   12   32 1
  24   12   33 1
  25   13   34 1
  26   13   35 1
  27   13   36 1
  28   14   37 1
  29   14   38 1
  30   14   39 1
  31   15   16 am
  32   15   17 2
  33   16   18 1
  34   16   40 1
  35   18   41 1
  36   18   42 1
  37   18   43 1
  38   19   20 1
  39   19   44 1
  40   19   45 1
  41   20   21 1
  42   20   46 1
  43   20   47 1
  44   21   22 1
  45   21   48 1
  46   21   49 1
  47   22   23 1
  48   22   24 1
  49   23   50 1
  50   23   51 1
  51   24   52 1
  52   24   53 1
  53   24   54 1
  54   25   26 1
  55   25   55 1
  56   26   27 1
  57   27   28 2
  58   27   56 1
  59   28   57 1

#	End of record

