#	Name: ASD03430508
#	Creating user name:	WinNT
#	Creation time:	15. 06. 2019 20:41

#	Modifying user name:	WinNT
#	Modification time:	15. 06. 2019 20:41

#	Program:	/corina/corina34_cracker 3.40 0067  02.08.2006

@<TRIPOS>MOLECULE
ASD03430508
  52   57    0    0    0
SMALL
NO_CHARGES


@<TRIPOS>ATOM
   1 O1            -1.9858    -0.3766     0.3090 O.3     
   2 C2            -1.3322    -1.6571     0.2223 C.3     
   3 C3            -0.0114    -1.3105    -0.4786 C.3     
   4 C4             0.1789     0.1468    -0.1541 C.ar    
   5 C5            -1.0463     0.6111     0.3166 C.ar    
   6 C6            -1.1563     1.9409     0.7113 C.ar    
   7 C7            -0.0677     2.7871     0.6250 C.ar    
   8 C8             1.1451     2.3170     0.1447 C.ar    
   9 C9             1.2628     0.9933    -0.2437 C.ar    
  10 N10            1.6227    -2.8011    -1.0553 N.am    
  11 C11            1.1239    -2.1580     0.0193 C.2     
  12 C12           -0.0781    -1.5629    -1.9556 C.ar    
  13 C13           -0.8892    -1.0947    -2.9652 C.ar    
  14 C14           -0.6976    -1.5276    -4.2651 C.ar    
  15 C15            0.3104    -2.4313    -4.5482 C.ar    
  16 C16            1.1252    -2.9036    -3.5405 C.ar    
  17 C17            0.9396    -2.4732    -2.2289 C.ar    
  18 O18            1.5154    -2.2463     1.1638 O.2     
  19 F19           -0.1853     4.0768     1.0096 F       
  20 F20            2.2073     3.1471     0.0560 F       
  21 C21            2.7499    -3.7351    -0.9989 C.3     
  22 C22            3.8931    -3.1928    -1.8175 C.ar    
  23 C23            4.6869    -4.0540    -2.5518 C.ar    
  24 C24            5.7355    -3.5565    -3.3026 C.ar    
  25 C25            5.9901    -2.1979    -3.3195 C.ar    
  26 C26            5.1957    -1.3367    -2.5859 C.ar    
  27 C27            4.1444    -1.8337    -1.8385 C.ar    
  28 C28            3.1920    -3.9031     0.4320 C.ar    
  29 C29            2.9379    -5.0867     1.0995 C.ar    
  30 C30            3.3434    -5.2407     2.4120 C.ar    
  31 C31            4.0033    -4.2114     3.0569 C.ar    
  32 C32            4.2582    -3.0282     2.3891 C.ar    
  33 C33            3.8565    -2.8757     1.0752 C.ar    
  34 H34           -1.1475    -2.0653     1.2159 H       
  35 H35           -1.9191    -2.3511    -0.3794 H       
  36 H36           -2.0978     2.3136     1.0867 H       
  37 H37            2.2060     0.6233    -0.6177 H       
  38 H38           -1.6759    -0.3892    -2.7419 H       
  39 H39           -1.3339    -1.1609    -5.0571 H       
  40 H40            0.4600    -2.7690    -5.5631 H       
  41 H41            1.9098    -3.6096    -3.7693 H       
  42 H42            2.4420    -4.7008    -1.3998 H       
  43 H43            4.4880    -5.1154    -2.5386 H       
  44 H44            6.3562    -4.2294    -3.8758 H       
  45 H45            6.8098    -1.8094    -3.9056 H       
  46 H46            5.3948    -0.2753    -2.5989 H       
  47 H47            3.5215    -1.1605    -1.2683 H       
  48 H48            2.4223    -5.8909     0.5956 H       
  49 H49            3.1443    -6.1652     2.9337 H       
  50 H50            4.3195    -4.3315     4.0826 H       
  51 H51            4.7735    -2.2239     2.8931 H       
  52 H52            4.0589    -1.9527     0.5523 H       
@<TRIPOS>BOND
   1    1    2 1
   2    1    5 1
   3    2    3 1
   4    2   34 1
   5    2   35 1
   6    3    4 1
   7    3   11 1
   8    3   12 1
   9    4    5 ar
  10    4    9 ar
  11    5    6 ar
  12    6    7 ar
  13    6   36 1
  14    7    8 ar
  15    7   19 1
  16    8    9 ar
  17    8   20 1
  18    9   37 1
  19   10   11 am
  20   10   17 1
  21   10   21 1
  22   11   18 2
  23   12   13 ar
  24   12   17 ar
  25   13   14 ar
  26   13   38 1
  27   14   15 ar
  28   14   39 1
  29   15   16 ar
  30   15   40 1
  31   16   17 ar
  32   16   41 1
  33   21   22 1
  34   21   28 1
  35   21   42 1
  36   22   23 ar
  37   22   27 ar
  38   23   24 ar
  39   23   43 1
  40   24   25 ar
  41   24   44 1
  42   25   26 ar
  43   25   45 1
  44   26   27 ar
  45   26   46 1
  46   27   47 1
  47   28   29 ar
  48   28   33 ar
  49   29   30 ar
  50   29   48 1
  51   30   31 ar
  52   30   49 1
  53   31   32 ar
  54   31   50 1
  55   32   33 ar
  56   32   51 1
  57   33   52 1

#	End of record

