#	Name: ASD04880422
#	Creating user name:	WinNT
#	Creation time:	15. 06. 2019 20:53

#	Modifying user name:	WinNT
#	Modification time:	15. 06. 2019 20:53

#	Program:	/corina/corina34_cracker 3.40 0067  02.08.2006

@<TRIPOS>MOLECULE
ASD04880422
  38   40    0    0    0
SMALL
NO_CHARGES


@<TRIPOS>ATOM
   1 C1            -0.0054     1.3610     0.2974 C.ar    
   2 C2             0.0099    -0.0223     0.2642 C.ar    
   3 C3            -1.1746    -0.7275     0.2171 C.ar    
   4 C4            -2.3916    -0.0419     0.2035 C.ar    
   5 C5            -2.3994     1.3546     0.2377 C.ar    
   6 C6            -1.2073     2.0465     0.2895 C.ar    
   7 C7            -3.6621    -0.7888     0.1528 C.2     
   8 N8            -3.7691    -2.0722     0.1185 N.2     
   9 N9            -5.0833    -2.5330     0.0737 N.am    
  10 C10           -5.9934    -1.3765     0.0790 C.3     
  11 C11           -5.0401    -0.1666     0.1396 C.3     
  12 C12           -5.4596    -3.8265     0.0319 C.2     
  13 C13           -4.4401    -4.8889    -0.0951 C.ar    
  14 O14           -6.6378    -4.1193     0.0988 O.2     
  15 C15           -3.1032    -4.5543    -0.3153 C.ar    
  16 C16           -2.1551    -5.5530    -0.4326 C.ar    
  17 C17           -2.5308    -6.8829    -0.3319 C.ar    
  18 C18           -3.8550    -7.2190    -0.1141 C.ar    
  19 C19           -4.8096    -6.2312     0.0105 C.ar    
  20 S20            1.5126     2.2534     0.3574 S.o     
  21 C21            1.9088     2.5030    -1.3951 C.3     
  22 O22            1.1318     3.4932     0.9381 O.2     
  23 F23           -0.8603    -5.2321    -0.6462 F       
  24 H24            0.9516    -0.5510     0.2748 H       
  25 H25           -1.1611    -1.8071     0.1905 H       
  26 H26           -3.3367     1.8911     0.2271 H       
  27 H27           -1.2118     3.1262     0.3163 H       
  28 H28           -6.5904    -1.3541    -0.8327 H       
  29 H29           -6.6360    -1.3982     0.9591 H       
  30 H30           -5.2135     0.4117     1.0471 H       
  31 H31           -5.1617     0.4606    -0.7436 H       
  32 H32           -2.8104    -3.5178    -0.3942 H       
  33 H33           -1.7868    -7.6603    -0.4242 H       
  34 H34           -4.1413    -8.2575    -0.0369 H       
  35 H35           -5.8428    -6.4959     0.1805 H       
  36 H36            1.1085     3.0693    -1.8715 H       
  37 H37            2.8450     3.0546    -1.4810 H       
  38 H38            2.0110     1.5352    -1.8859 H       
@<TRIPOS>BOND
   1    1    2 ar
   2    1   20 1
   3    1    6 ar
   4    2    3 ar
   5    2   24 1
   6    3    4 ar
   7    3   25 1
   8    4    5 ar
   9    4    7 1
  10    5    6 ar
  11    5   26 1
  12    6   27 1
  13    7    8 2
  14    7   11 1
  15    8    9 1
  16    9   10 1
  17    9   12 am
  18   10   11 1
  19   10   28 1
  20   10   29 1
  21   11   30 1
  22   11   31 1
  23   12   13 1
  24   12   14 2
  25   13   15 ar
  26   13   19 ar
  27   15   16 ar
  28   15   32 1
  29   16   17 ar
  30   16   23 1
  31   17   18 ar
  32   17   33 1
  33   18   19 ar
  34   18   34 1
  35   19   35 1
  36   20   21 1
  37   20   22 2
  38   21   36 1
  39   21   37 1
  40   21   38 1

#	End of record

