#	Name: ASD03930209
#	Creating user name:	WinNT
#	Creation time:	15. 06. 2019 20:47

#	Modifying user name:	WinNT
#	Modification time:	15. 06. 2019 20:47

#	Program:	/corina/corina34_cracker 3.40 0067  02.08.2006

@<TRIPOS>MOLECULE
ASD03930209
  44   46    0    0    0
SMALL
NO_CHARGES


@<TRIPOS>ATOM
   1 C1             7.9063     2.1807    -1.1270 C.3     
   2 S2             6.3792     1.6498    -0.3044 S.o2    
   3 O3             6.6317     0.5418     0.5487 O.2     
   4 O4             5.6430     2.7751     0.1547 O.2     
   5 N5             5.4496     1.0233    -1.5233 N.am    
   6 C6             5.8866    -0.1821    -2.2322 C.3     
   7 C7             4.7311    -0.7515    -3.0143 C.ar    
   8 C8             4.5118    -0.3449    -4.3163 C.ar    
   9 C9             3.4481    -0.8699    -5.0359 C.ar    
  10 C10            2.6070    -1.8025    -4.4453 C.ar    
  11 C11            2.8307    -2.2056    -3.1434 C.ar    
  12 C12            3.8948    -1.6846    -2.4301 C.ar    
  13 O13            3.2300    -0.4714    -6.3165 O.3     
  14 S14            6.1603    -4.4417    -7.7447 S.o2    
  15 N15            7.7166    -4.0776    -8.2171 N.am    
  16 C16            8.0327    -4.0022    -9.6401 C.3     
  17 C17            7.2814    -2.8917   -10.3586 C.3     
  18 O18            5.8683    -3.1272   -10.3437 O.3     
  19 C19            5.1780    -2.5089    -9.3522 C.ar    
  20 C20            5.2349    -2.9544    -8.0387 C.ar    
  21 C21            4.4060    -1.3892    -9.6420 C.ar    
  22 C22            3.7530    -0.7199    -8.6263 C.ar    
  23 C23            3.8562    -1.1529    -7.3125 C.ar    
  24 C24            4.6050    -2.2890    -7.0203 C.ar    
  25 O25            5.6722    -5.4153    -8.6574 O.2     
  26 O26            6.1933    -4.6323    -6.3369 O.2     
  27 H27            8.3815     1.3217    -1.6007 H       
  28 H28            7.6701     2.9285    -1.8841 H       
  29 H29            8.5850     2.6111    -0.3906 H       
  30 H30            4.6158     1.4544    -1.7680 H       
  31 H31            6.6974     0.0718    -2.9149 H       
  32 H32            6.2365    -0.9208    -1.5112 H       
  33 H33            5.1676     0.3812    -4.7735 H       
  34 H34            1.7781    -2.2125    -5.0032 H       
  35 H35            2.1762    -2.9311    -2.6832 H       
  36 H36            4.0706    -2.0045    -1.4136 H       
  37 H37            8.4053    -3.9170    -7.5531 H       
  38 H38            9.1033    -3.8314    -9.7530 H       
  39 H39            7.7808    -4.9547   -10.1063 H       
  40 H40            7.4904    -1.9422    -9.8658 H       
  41 H41            7.6239    -2.8395   -11.3921 H       
  42 H42            4.3179    -1.0429   -10.6612 H       
  43 H43            3.1551     0.1494    -8.8571 H       
  44 H44            4.6882    -2.6420    -6.0030 H       
@<TRIPOS>BOND
   1    1    2 1
   2    1   27 1
   3    1   28 1
   4    1   29 1
   5    2    3 2
   6    2    4 2
   7    2    5 am
   8    5    6 1
   9    5   30 1
  10    6    7 1
  11    6   31 1
  12    6   32 1
  13    7    8 ar
  14    7   12 ar
  15    8    9 ar
  16    8   33 1
  17    9   10 ar
  18    9   13 1
  19   10   11 ar
  20   10   34 1
  21   11   12 ar
  22   11   35 1
  23   12   36 1
  24   13   23 1
  25   14   15 am
  26   14   20 1
  27   14   25 2
  28   14   26 2
  29   15   16 1
  30   15   37 1
  31   16   17 1
  32   16   38 1
  33   16   39 1
  34   17   18 1
  35   17   40 1
  36   17   41 1
  37   18   19 1
  38   19   20 ar
  39   19   21 ar
  40   20   24 ar
  41   21   22 ar
  42   21   42 1
  43   22   23 ar
  44   22   43 1
  45   23   24 ar
  46   24   44 1

#	End of record

