#	Name: ASD02560362
#	Creating user name:	WinNT
#	Creation time:	15. 06. 2019 20:25

#	Modifying user name:	WinNT
#	Modification time:	15. 06. 2019 20:25

#	Program:	/corina/corina34_cracker 3.40 0067  02.08.2006

@<TRIPOS>MOLECULE
ASD02560362
  40   42    0    0    0
SMALL
NO_CHARGES


@<TRIPOS>ATOM
   1 C1             1.0231     1.1847     2.9288 C.2     
   2 C2             1.3041    -0.1871     3.0584 C.2     
   3 C3             2.1394    -0.7963     2.1931 C.2     
   4 N4             2.7249    -0.0909     1.1776 N.pl3   
   5 C5             2.4685     1.2521     1.0257 C.2     
   6 C6             1.5969     1.8998     1.9248 C.2     
   7 C7             3.5918    -0.4482     0.1803 C.2     
   8 C8             3.8426     0.6688    -0.5490 C.2     
   9 N9             3.1534     1.6859    -0.0209 N.2     
  10 C10            4.7464     0.7492    -1.7523 C.3     
  11 N11            4.1206    -1.7246    -0.0445 N.pl3   
  12 C12            3.3044    -2.7401    -0.5531 C.ar    
  13 C13            2.0069    -2.4520    -0.9574 C.ar    
  14 C14            3.9386     1.2109    -2.9669 C.3     
  15 C15            5.8721     1.7485    -1.4787 C.3     
  16 C16            3.7924    -4.0363    -0.6598 C.ar    
  17 C17            2.9858    -5.0380    -1.1625 C.ar    
  18 C18            1.6887    -4.7504    -1.5610 C.ar    
  19 C19            1.2021    -3.4553    -1.4599 C.ar    
  20 O20            0.8952    -5.7377    -2.0561 O.3     
  21 C21           -0.4294    -5.3707    -2.4472 C.3     
  22 H22            0.3501     1.6676     3.6218 H       
  23 H23            0.8485    -0.7557     3.8557 H       
  24 H24            2.3485    -1.8502     2.3028 H       
  25 H25            1.3866     2.9536     1.8168 H       
  26 H26            5.1735    -0.2335    -1.9522 H       
  27 H27            5.0531    -1.9048     0.1525 H       
  28 H28            1.6278    -1.4439    -0.8784 H       
  29 H29            3.5115     2.1936    -2.7669 H       
  30 H30            4.5922     1.2691    -3.8372 H       
  31 H31            3.1366     0.4990    -3.1618 H       
  32 H32            5.4450     2.7312    -1.2787 H       
  33 H33            6.4476     1.4196    -0.6134 H       
  34 H34            6.5258     1.8067    -2.3490 H       
  35 H35            4.8024    -4.2604    -0.3499 H       
  36 H36            3.3652    -6.0458    -1.2459 H       
  37 H37            0.1918    -3.2325    -1.7701 H       
  38 H38           -0.9642    -4.9689    -1.5865 H       
  39 H39           -0.3805    -4.6140    -3.2302 H       
  40 H40           -0.9538    -6.2492    -2.8231 H       
@<TRIPOS>BOND
   1    1    2 1
   2    1    6 2
   3    1   22 1
   4    2    3 2
   5    2   23 1
   6    3    4 1
   7    3   24 1
   8    4    5 1
   9    4    7 1
  10    5    6 1
  11    5    9 2
  12    6   25 1
  13    7    8 2
  14    7   11 1
  15    8    9 1
  16    8   10 1
  17   10   14 1
  18   10   15 1
  19   10   26 1
  20   11   12 1
  21   11   27 1
  22   12   16 ar
  23   12   13 ar
  24   13   19 ar
  25   13   28 1
  26   14   29 1
  27   14   30 1
  28   14   31 1
  29   15   32 1
  30   15   33 1
  31   15   34 1
  32   16   17 ar
  33   16   35 1
  34   17   18 ar
  35   17   36 1
  36   18   19 ar
  37   18   20 1
  38   19   37 1
  39   20   21 1
  40   21   38 1
  41   21   39 1
  42   21   40 1

#	End of record

