#	Name: ASD04660034
#	Creating user name:	WinNT
#	Creation time:	15. 06. 2019 20:52

#	Modifying user name:	WinNT
#	Modification time:	15. 06. 2019 20:52

#	Program:	/corina/corina34_cracker 3.40 0067  02.08.2006

@<TRIPOS>MOLECULE
ASD04660034
  46   49    0    0    0
SMALL
NO_CHARGES


@<TRIPOS>ATOM
   1 N1             8.6856    -0.6212    -4.8005 N.am    
   2 C2             9.8809    -0.0039    -4.6058 C.2     
   3 C3             9.7389     0.9099    -3.4660 C.ar    
   4 C4             8.4054     0.7504    -3.0603 C.ar    
   5 C5             7.8211     1.4344    -1.9937 C.ar    
   6 C6             6.4717     1.1564    -1.7198 C.ar    
   7 C7             5.8206     0.2438    -2.5047 C.ar    
   8 C8             6.4302    -0.4259    -3.5649 C.ar    
   9 C9             7.7569    -0.1796    -3.8665 C.ar    
  10 C10            8.6331     2.3393    -1.2887 C.ar    
  11 C11            9.9361     2.5016    -1.6772 C.ar    
  12 C12           10.5049     1.8098    -2.7462 C.ar    
  13 O13           10.8911    -0.1783    -5.2612 O.2     
  14 S14            5.6365     1.9641    -0.3952 S.o2    
  15 O15            5.9077     3.3518    -0.5365 O.2     
  16 O16            4.3206     1.4285    -0.3646 O.2     
  17 N17            6.3690     1.4853     1.0107 N.am    
  18 C18            6.0735     0.1676     1.5787 C.3     
  19 C19            6.6293     0.0662     2.7535 C.2     
  20 O20            4.6589     0.0100     1.7059 O.3     
  21 C21            4.0525     0.9227     2.6231 C.3     
  22 C22            6.6187    -0.9046     0.6708 C.ar    
  23 C23            5.9952    -2.1365     0.6039 C.ar    
  24 C24            6.4954    -3.1200    -0.2288 C.ar    
  25 C25            7.6188    -2.8713    -0.9950 C.ar    
  26 C26            8.2418    -1.6391    -0.9288 C.ar    
  27 C27            7.7391    -0.6542    -0.0993 C.ar    
  28 N28            8.1550    -3.9248    -1.8860 N.pl3   
  29 O29            7.6063    -5.0106    -1.9441 O.2     
  30 O30            9.1449    -3.7057    -2.5611 O.2     
  31 H31            8.5056    -1.2738    -5.4951 H       
  32 H32            4.7832     0.0316    -2.2921 H       
  33 H33            5.8664    -1.1373    -4.1501 H       
  34 H34            8.2358     2.8979    -0.4542 H       
  35 H35           10.5528     3.1989    -1.1295 H       
  36 H36           11.5388     1.9753    -3.0106 H       
  37 H37            6.9937     2.0773     1.4581 H       
  38 H38            6.0300    -0.1925     3.6139 H       
  39 H39            7.6891     0.2411     2.8663 H       
  40 H40            4.3139     1.9440     2.3458 H       
  41 H41            2.9695     0.8036     2.5918 H       
  42 H42            4.4117     0.7169     3.6314 H       
  43 H43            5.1175    -2.3307     1.2025 H       
  44 H44            6.0087    -4.0827    -0.2806 H       
  45 H45            9.1197    -1.4450    -1.5271 H       
  46 H46            8.2236     0.3098    -0.0503 H       
@<TRIPOS>BOND
   1    1    2 am
   2    1    9 1
   3    1   31 1
   4    2    3 1
   5    2   13 2
   6    3    4 ar
   7    3   12 ar
   8    4    5 ar
   9    4    9 ar
  10    5    6 ar
  11    5   10 ar
  12    6    7 ar
  13    6   14 1
  14    7    8 ar
  15    7   32 1
  16    8    9 ar
  17    8   33 1
  18   10   11 ar
  19   10   34 1
  20   11   12 ar
  21   11   35 1
  22   12   36 1
  23   14   15 2
  24   14   16 2
  25   14   17 am
  26   17   18 1
  27   17   37 1
  28   18   19 2
  29   18   20 1
  30   18   22 1
  31   19   38 1
  32   19   39 1
  33   20   21 1
  34   21   40 1
  35   21   41 1
  36   21   42 1
  37   22   23 ar
  38   22   27 ar
  39   23   24 ar
  40   23   43 1
  41   24   25 ar
  42   24   44 1
  43   25   26 ar
  44   25   28 1
  45   26   27 ar
  46   26   45 1
  47   27   46 1
  48   28   29 2
  49   28   30 2

#	End of record

