#	Name: ASD01882680
#	Creating user name:	WinNT
#	Creation time:	15. 06. 2019 19:45

#	Modifying user name:	WinNT
#	Modification time:	15. 06. 2019 19:45

#	Program:	/corina/corina34_cracker 3.40 0067  02.08.2006

@<TRIPOS>MOLECULE
ASD01882680
  48   52    0    0    0
SMALL
NO_CHARGES


@<TRIPOS>ATOM
   1 O1            -0.0338     1.4234     0.0281 O.3     
   2 C2             0.1136     0.0087    -0.1191 C.3     
   3 C3             1.2681    -0.4576     0.7754 C.3     
   4 O4             2.4573     0.2289     0.3692 O.3     
   5 C5             2.3498     1.5704     0.1663 C.ar    
   6 C6             1.1060     2.1667    -0.0065 C.ar    
   7 C7             3.4976     2.3478     0.1328 C.ar    
   8 C8             3.4048     3.7114    -0.0746 C.ar    
   9 C9             2.1684     4.3036    -0.2497 C.ar    
  10 C10            1.0200     3.5347    -0.2160 C.ar    
  11 N11           -1.9800    -0.3872    -1.9761 N.pl3   
  12 C12           -2.3354    -0.1922    -0.5639 C.3     
  13 C13           -1.1779    -0.6894     0.3084 C.3     
  14 C14            0.4269    -0.3284    -1.5768 C.3     
  15 C15           -0.7136     0.1706    -2.4699 C.3     
  16 C16           -4.9147    -1.3310    -3.9755 C.2     
  17 C17           -4.0781    -0.6057    -3.1092 C.2     
  18 C18           -2.8276    -1.0882    -2.8307 C.2     
  19 C19           -2.4025    -2.3006    -3.4156 C.2     
  20 C20           -3.2212    -2.9797    -4.2429 C.2     
  21 N21           -4.4694    -2.5074    -4.5276 N.pl3   
  22 N22           -6.4721    -2.1037    -5.2107 N.2     
  23 N23           -6.1453    -1.1381    -4.4257 N.2     
  24 C24           -5.4918    -2.9629    -5.3069 C.2     
  25 C25           -5.4921    -4.2272    -6.1270 C.3     
  26 C26           -6.0247    -5.3846    -5.2797 C.3     
  27 F27           -7.3296    -5.0972    -4.8653 F       
  28 F28           -6.0250    -6.5583    -6.0410 F       
  29 F29           -5.2064    -5.5565    -4.1581 F       
  30 Cl30          -4.6233     0.8833    -2.4025 Cl      
  31 H31            1.0450    -0.2217     1.8159 H       
  32 H32            1.4082    -1.5327     0.6638 H       
  33 H33            4.4650     1.8875     0.2692 H       
  34 H34            4.3001     4.3149    -0.1001 H       
  35 H35            2.0992     5.3690    -0.4125 H       
  36 H36            0.0551     3.9998    -0.3534 H       
  37 H37           -2.5078     0.8670    -0.3733 H       
  38 H38           -3.2372    -0.7590    -0.3323 H       
  39 H39           -1.0668    -1.7668     0.1859 H       
  40 H40           -1.3860    -0.4612     1.3537 H       
  41 H41            1.3577     0.1569    -1.8704 H       
  42 H42            0.5290    -1.4081    -1.6865 H       
  43 H43           -0.5450    -0.1578    -3.4955 H       
  44 H44           -0.7556     1.2592    -2.4349 H       
  45 H45           -1.4168    -2.6854    -3.1994 H       
  46 H46           -2.8861    -3.9062    -4.6852 H       
  47 H47           -6.1297    -4.0933    -7.0009 H       
  48 H48           -4.4754    -4.4512    -6.4499 H       
@<TRIPOS>BOND
   1    1    2 1
   2    1    6 1
   3    2    3 1
   4    2   13 1
   5    2   14 1
   6    3    4 1
   7    3   31 1
   8    3   32 1
   9    4    5 1
  10    5    6 ar
  11    5    7 ar
  12    6   10 ar
  13    7    8 ar
  14    7   33 1
  15    8    9 ar
  16    8   34 1
  17    9   10 ar
  18    9   35 1
  19   10   36 1
  20   11   12 1
  21   11   15 1
  22   11   18 1
  23   12   13 1
  24   12   37 1
  25   12   38 1
  26   13   39 1
  27   13   40 1
  28   14   15 1
  29   14   41 1
  30   14   42 1
  31   15   43 1
  32   15   44 1
  33   16   17 1
  34   16   21 1
  35   16   23 2
  36   17   18 2
  37   17   30 1
  38   18   19 1
  39   19   20 2
  40   19   45 1
  41   20   21 1
  42   20   46 1
  43   21   24 1
  44   22   23 1
  45   22   24 2
  46   24   25 1
  47   25   26 1
  48   25   47 1
  49   25   48 1
  50   26   27 1
  51   26   28 1
  52   26   29 1

#	End of record

