#	Name: ASD02500021
#	Creating user name:	WinNT
#	Creation time:	15. 06. 2019 20:22

#	Modifying user name:	WinNT
#	Modification time:	15. 06. 2019 20:22

#	Program:	/corina/corina34_cracker 3.40 0067  02.08.2006

@<TRIPOS>MOLECULE
ASD02500021
  47   50    0    0    0
SMALL
NO_CHARGES


@<TRIPOS>ATOM
   1 C1            -0.0167     1.3817     0.0096 C.ar    
   2 C2             0.0021    -0.0041     0.0020 C.ar    
   3 C3             1.1984    -0.6893    -0.0127 C.ar    
   4 C4             2.4015     0.0098    -0.0200 C.ar    
   5 C5             2.3799     1.4124    -0.0127 C.ar    
   6 C6             1.1654     2.0919     0.0022 C.ar    
   7 N7             3.7205    -0.4075    -0.0344 N.pl3   
   8 C8             4.5706     0.6811    -0.0369 C.ar    
   9 C9             3.7888     1.8517    -0.0237 C.ar    
  10 C10            5.9659     0.7771    -0.0491 C.ar    
  11 C11            6.5764     1.9912    -0.0478 C.ar    
  12 C12            5.8058     3.1812    -0.0341 C.ar    
  13 C13            4.3951     3.0972    -0.0237 C.ar    
  14 C14            6.4328     4.4205    -0.0325 C.2     
  15 C15            7.7378     4.4927    -0.0436 C.1     
  16 N16            8.9858     4.5617    -0.0542 N.2     
  17 O17            9.6032     4.5892     0.9954 O.3     
  18 C18           10.9497     4.6642     0.9132 C.2     
  19 C19           11.7633     4.7014     2.1443 C.ar    
  20 O20           11.4905     4.7009    -0.1733 O.2     
  21 C21           13.1559     4.7789     2.0631 C.ar    
  22 C22           13.9098     4.8133     3.2175 C.ar    
  23 C23           13.2899     4.7708     4.4541 C.ar    
  24 C24           11.9109     4.6940     4.5421 C.ar    
  25 C25           11.1441     4.6651     3.3962 C.ar    
  26 C26            4.1543    -1.8067    -0.0451 C.3     
  27 C27            4.2923    -2.2869    -1.4912 C.3     
  28 N28           14.1059     4.8071     5.6886 N.pl3   
  29 O29           15.4184     4.8797     5.6085 O.2     
  30 O30           13.5193     4.7668     6.8671 O.2     
  31 H31           -0.9603     1.9071     0.0170 H       
  32 H32           -0.9286    -0.5520     0.0080 H       
  33 H33            1.2018    -1.7692    -0.0182 H       
  34 H34            1.1487     3.1717     0.0074 H       
  35 H35            6.5638    -0.1223    -0.0592 H       
  36 H36            7.6548     2.0499    -0.0569 H       
  37 H37            3.7956     3.9955    -0.0135 H       
  38 H38            5.8420     5.3245    -0.0221 H       
  39 H39           13.6409     4.8114     1.0987 H       
  40 H40           14.9864     4.8732     3.1563 H       
  41 H41           11.4339     4.6608     5.5105 H       
  42 H42           10.0680     4.6052     3.4663 H       
  43 H43            5.1166    -1.8926     0.4597 H       
  44 H44            3.4165    -2.4198     0.4725 H       
  45 H45            3.3300    -2.2010    -1.9959 H       
  46 H46            5.0301    -1.6738    -2.0088 H       
  47 H47            4.6151    -3.3280    -1.4991 H       
@<TRIPOS>BOND
   1    1    2 ar
   2    1    6 ar
   3    1   31 1
   4    2    3 ar
   5    2   32 1
   6    3    4 ar
   7    3   33 1
   8    4    5 ar
   9    4    7 1
  10    5    6 ar
  11    5    9 1
  12    6   34 1
  13    7    8 1
  14    7   26 1
  15    8    9 ar
  16    8   10 ar
  17    9   13 ar
  18   10   11 ar
  19   10   35 1
  20   11   12 ar
  21   11   36 1
  22   12   13 ar
  23   12   14 1
  24   13   37 1
  25   14   15 2
  26   14   38 1
  27   15   16 2
  28   16   17 1
  29   17   18 1
  30   18   19 1
  31   18   20 2
  32   19   21 ar
  33   19   25 ar
  34   21   22 ar
  35   21   39 1
  36   22   23 ar
  37   22   40 1
  38   23   24 ar
  39   23   28 1
  40   24   25 ar
  41   24   41 1
  42   25   42 1
  43   26   27 1
  44   26   43 1
  45   26   44 1
  46   27   45 1
  47   27   46 1
  48   27   47 1
  49   28   29 2
  50   28   30 2

#	End of record

