#	Name: ASD06170002
#	Creating user name:	WinNT
#	Creation time:	15. 06. 2019 21:05

#	Modifying user name:	WinNT
#	Modification time:	15. 06. 2019 21:05

#	Program:	/corina/corina34_cracker 3.40 0067  02.08.2006

@<TRIPOS>MOLECULE
ASD06170002
  71   76    0    0    0
SMALL
NO_CHARGES


@<TRIPOS>ATOM
   1 N1            -0.1803     1.4911    -0.0713 N.pl3   
   2 N2             0.0303     0.1111     0.0052 N.am    
   3 C3             1.3332    -0.1389    -0.2405 C.2     
   4 C4             1.9703     1.1649    -0.4845 C.2     
   5 C5             0.9762     2.1162    -0.3630 C.2     
   6 C6             3.3841     1.4070    -0.7954 C.2     
   7 O7             3.7817     2.5429    -0.9752 O.2     
   8 N8             4.2421     0.3711    -0.8817 N.am    
   9 C9             1.1555     3.6032    -0.5297 C.3     
  10 N10            0.3933     4.0602    -1.6994 N.3     
  11 C11            0.3484     5.5328    -1.7583 C.3     
  12 C12            0.9282     5.9535    -3.1252 C.3     
  13 C13            0.7428     4.6793    -3.9906 C.3     
  14 C14            0.9942     3.5570    -2.9530 C.3     
  15 C15           -0.9459    -0.8493     0.2898 C.ar    
  16 C16           -1.0243    -2.0085    -0.4711 C.ar    
  17 C17           -1.9891    -2.9551    -0.1873 C.ar    
  18 C18           -2.8768    -2.7494     0.8529 C.ar    
  19 C19           -2.8017    -1.5960     1.6121 C.ar    
  20 C20           -1.8353    -0.6484     1.3374 C.ar    
  21 O21            1.8749    -1.2285    -0.2572 O.2     
  22 C22           -1.4693     2.1577     0.1297 C.3     
  23 C23            5.5534     0.5852    -1.3062 C.ar    
  24 C24            6.1064     1.8577    -1.2157 C.ar    
  25 C25            7.4075     2.0588    -1.6395 C.ar    
  26 C26            8.1168     0.9712    -2.1435 C.ar    
  27 C27            7.5007    -0.2684    -2.2038 C.ar    
  28 N28            6.2592    -0.4262    -1.7857 N.ar    
  29 O29            9.3982     1.1242    -2.5717 O.3     
  30 N30           12.3660     1.2834     0.2877 N.ar    
  31 C31           11.1062     1.2069     0.6475 C.ar    
  32 C32           10.0798     1.1517    -0.2867 C.ar    
  33 C33           10.3792     1.1772    -1.6377 C.ar    
  34 C34           11.7392     1.2597    -2.0137 C.ar    
  35 C35           12.1201     1.2899    -3.3632 C.ar    
  36 C36           13.4379     1.3697    -3.6933 C.ar    
  37 C37           14.4217     1.4222    -2.7016 C.ar    
  38 C38           14.0798     1.3939    -1.3685 C.ar    
  39 C39           12.7274     1.3122    -1.0006 C.ar    
  40 O40           15.7302     1.5016    -3.0576 O.3     
  41 C41           16.0216     1.5269    -4.4563 C.3     
  42 H42            3.9476    -0.5232    -0.6485 H       
  43 H43            0.7939     4.1150     0.3622 H       
  44 H44            2.2122     3.8278    -0.6742 H       
  45 H45           -0.6824     5.8761    -1.6713 H       
  46 H46            0.9512     5.9546    -0.9541 H       
  47 H47            0.3648     6.7881    -3.5424 H       
  48 H48            1.9843     6.2073    -3.0342 H       
  49 H49           -0.2699     4.6224    -4.3897 H       
  50 H50            1.4797     4.6416    -4.7929 H       
  51 H51            2.0640     3.3938    -2.8222 H       
  52 H52            0.5042     2.6348    -3.2652 H       
  53 H53           -0.3318    -2.1694    -1.2841 H       
  54 H54           -2.0506    -3.8567    -0.7786 H       
  55 H55           -3.6306    -3.4910     1.0726 H       
  56 H56           -3.4969    -1.4381     2.4234 H       
  57 H57           -1.7741     0.2500     1.9338 H       
  58 H58           -2.2505     1.4079     0.2543 H       
  59 H59           -1.4200     2.7826     1.0214 H       
  60 H60           -1.6963     2.7785    -0.7369 H       
  61 H61            5.5272     2.6787    -0.8197 H       
  62 H62            7.8628     3.0364    -1.5813 H       
  63 H63            8.0443    -1.1162    -2.5937 H       
  64 H64           10.8607     1.1860     1.6991 H       
  65 H65            9.0523     1.0888     0.0398 H       
  66 H66           11.3694     1.2496    -4.1385 H       
  67 H67           13.7271     1.3924    -4.7337 H       
  68 H68           14.8475     1.4349    -0.6100 H       
  69 H69           15.6461     0.6158    -4.9222 H       
  70 H70           15.5411     2.3926    -4.9120 H       
  71 H71           17.0999     1.5915    -4.6016 H       
@<TRIPOS>BOND
   1    1    2 1
   2    1    5 1
   3    1   22 1
   4    2    3 am
   5    2   15 1
   6    3    4 1
   7    3   21 2
   8    4    5 2
   9    4    6 1
  10    5    9 1
  11    6    7 2
  12    6    8 am
  13    8   23 1
  14    8   42 1
  15    9   10 1
  16    9   43 1
  17    9   44 1
  18   10   11 1
  19   10   14 1
  20   11   12 1
  21   11   45 1
  22   11   46 1
  23   12   13 1
  24   12   47 1
  25   12   48 1
  26   13   14 1
  27   13   49 1
  28   13   50 1
  29   14   51 1
  30   14   52 1
  31   15   16 ar
  32   15   20 ar
  33   16   17 ar
  34   16   53 1
  35   17   18 ar
  36   17   54 1
  37   18   19 ar
  38   18   55 1
  39   19   20 ar
  40   19   56 1
  41   20   57 1
  42   22   58 1
  43   22   59 1
  44   22   60 1
  45   23   24 ar
  46   23   28 ar
  47   24   25 ar
  48   24   61 1
  49   25   26 ar
  50   25   62 1
  51   26   27 ar
  52   26   29 1
  53   27   28 ar
  54   27   63 1
  55   29   33 1
  56   30   31 ar
  57   30   39 ar
  58   31   32 ar
  59   31   64 1
  60   32   33 ar
  61   32   65 1
  62   33   34 ar
  63   34   35 ar
  64   34   39 ar
  65   35   36 ar
  66   35   66 1
  67   36   37 ar
  68   36   67 1
  69   37   38 ar
  70   37   40 1
  71   38   39 ar
  72   38   68 1
  73   40   41 1
  74   41   69 1
  75   41   70 1
  76   41   71 1

#	End of record

