#	Name: ASD01140492
#	Creating user name:	WinNT
#	Creation time:	15. 06. 2019 19:01

#	Modifying user name:	WinNT
#	Modification time:	15. 06. 2019 19:01

#	Program:	/corina/corina34_cracker 3.40 0067  02.08.2006

@<TRIPOS>MOLECULE
ASD01140492
  27   28    0    0    0
SMALL
NO_CHARGES


@<TRIPOS>ATOM
   1 C1            -0.0157     1.3091     0.0092 C.2     
   2 C2             0.0021    -0.0041     0.0020 C.2     
   3 C3             1.3240    -0.7323    -0.0230 C.3     
   4 C4             2.4744     0.2815     0.0437 C.3     
   5 C5             1.3228     2.0267     0.0003 C.3     
   6 C6             2.2909     1.3894    -1.0137 C.3     
   7 C7             2.2322     1.3916     1.0807 C.3     
   8 C8             3.5525     2.2164    -1.2695 C.3     
   9 C9             1.6142     0.9118    -2.3001 C.3     
  10 C10           -1.3140     2.0742     0.0196 C.3     
  11 O11            1.4022    -1.6145     1.0985 O.3     
  12 H12           -0.9239    -0.5598     0.0143 H       
  13 H13            1.4025    -1.3099    -0.9440 H       
  14 H14            3.4638    -0.1753     0.0640 H       
  15 H15            1.2596     3.1148    -0.0151 H       
  16 H16            1.6957     1.0570     1.9685 H       
  17 H17            3.1196     1.9804     1.3127 H       
  18 H18            4.3502     1.5626    -1.6221 H       
  19 H19            3.3433     2.9741    -2.0246 H       
  20 H20            3.8627     2.7016    -0.3441 H       
  21 H21            0.6237     0.5215    -2.0662 H       
  22 H22            1.5210     1.7476    -2.9935 H       
  23 H23            2.2158     0.1260    -2.7569 H       
  24 H24           -2.1488     1.3734     0.0198 H       
  25 H25           -1.3619     2.6965     0.9132 H       
  26 H26           -1.3704     2.7062    -0.8667 H       
  27 H27            0.7065    -2.2858     1.1200 H       
@<TRIPOS>BOND
   1    1    2 2
   2    1    5 1
   3    1   10 1
   4    2    3 1
   5    2   12 1
   6    3    4 1
   7    3   11 1
   8    3   13 1
   9    4    6 1
  10    4    7 1
  11    4   14 1
  12    5    6 1
  13    5    7 1
  14    5   15 1
  15    6    8 1
  16    6    9 1
  17    7   16 1
  18    7   17 1
  19    8   18 1
  20    8   19 1
  21    8   20 1
  22    9   21 1
  23    9   22 1
  24    9   23 1
  25   10   24 1
  26   10   25 1
  27   10   26 1
  28   11   27 1

#	End of record

