#	Name: ASD01000099
#	Creating user name:	WinNT
#	Creation time:	15. 06. 2019 18:54

#	Modifying user name:	WinNT
#	Modification time:	15. 06. 2019 18:54

#	Program:	/corina/corina34_cracker 3.40 0067  02.08.2006

@<TRIPOS>MOLECULE
ASD01000099
  61   64    0    0    0
SMALL
NO_CHARGES


@<TRIPOS>ATOM
   1 C1            -0.4693     0.4954     0.4477 C.ar    
   2 C2            -0.2885    -0.8786     0.4443 C.ar    
   3 C3             0.9835    -1.4108     0.3567 C.ar    
   4 C4             2.0873    -0.5616     0.2716 C.ar    
   5 C5             1.8982     0.8227     0.2755 C.ar    
   6 C6             0.6203     1.3423     0.3636 C.ar    
   7 C7             3.4507    -1.1241     0.1782 C.2     
   8 C8             3.9704    -1.6787    -0.9017 C.2     
   9 F9             2.9619     1.6515     0.1938 F       
  10 F10           -1.3583    -1.6994     0.5273 F       
  11 C11            4.4571    -1.1444     1.2983 C.3     
  12 N12            5.6719    -1.7886     0.7810 N.am    
  13 C13            5.3774    -2.1337    -0.6164 C.3     
  14 C14            6.3410    -1.4254    -1.5334 C.ar    
  15 C15            6.2508    -1.6031    -2.9013 C.ar    
  16 C16            7.3115    -0.5937    -1.0069 C.ar    
  17 C17            8.1955     0.0560    -1.8480 C.ar    
  18 C18            8.1092    -0.1264    -3.2156 C.ar    
  19 C19            7.1348    -0.9534    -3.7424 C.ar    
  20 C20            5.4847    -3.6472    -0.8125 C.3     
  21 O21            5.1966    -3.9728    -2.1738 O.3     
  22 C22            6.8206    -2.0134     1.4492 C.2     
  23 O23            7.7112    -2.6566     0.9281 O.2     
  24 N24            6.9821    -1.5251     2.6950 N.am    
  25 C25            6.0177    -0.5640     3.2358 C.3     
  26 C26            8.1220    -1.9555     3.5083 C.3     
  27 C27            8.9780    -0.7397     3.8737 C.3     
  28 C28            7.6138    -2.6165     4.7926 C.3     
  29 C29            8.8079    -3.0090     5.6656 C.3     
  30 N30            9.5944    -1.8116     5.9883 N.3     
  31 C31           10.1326    -1.1865     4.7734 C.3     
  32 F32            6.8005    -1.7172     5.4905 F       
  33 C33           10.6695    -2.1282     6.9380 C.3     
  34 H34           -1.4660     0.9064     0.5118 H       
  35 H35            1.1231    -2.4817     0.3546 H       
  36 H36            0.4727     2.4122     0.3668 H       
  37 H37            3.4621    -1.7899    -1.8481 H       
  38 H38            4.6828    -0.1253     1.6124 H       
  39 H39            4.0640    -1.7154     2.1395 H       
  40 H40            5.4900    -2.2497    -3.3129 H       
  41 H41            7.3790    -0.4512     0.0615 H       
  42 H42            8.9533     0.7064    -1.4367 H       
  43 H43            8.7996     0.3814    -3.8727 H       
  44 H44            7.0674    -1.0959    -4.8108 H       
  45 H45            6.4948    -3.9748    -0.5665 H       
  46 H46            4.7707    -4.1497    -0.1599 H       
  47 H47            5.2460    -4.9182    -2.3710 H       
  48 H48            5.1501    -1.0985     3.6226 H       
  49 H49            6.4834     0.0039     4.0413 H       
  50 H50            5.7022     0.1176     2.4459 H       
  51 H51            8.7236    -2.6682     2.9442 H       
  52 H52            9.3779    -0.2898     2.9650 H       
  53 H53            8.3659    -0.0094     4.4030 H       
  54 H54            7.0389    -3.5076     4.5403 H       
  55 H55            8.4489    -3.4670     6.5873 H       
  56 H56            9.4337    -3.7202     5.1266 H       
  57 H57           10.7522    -1.9063     4.2385 H       
  58 H58           10.7358    -0.3209     5.0470 H       
  59 H59           11.3326    -2.8745     6.5005 H       
  60 H60           11.2364    -1.2239     7.1597 H       
  61 H61           10.2374    -2.5210     7.8583 H       
@<TRIPOS>BOND
   1    1    2 ar
   2    1    6 ar
   3    1   34 1
   4    2    3 ar
   5    2   10 1
   6    3    4 ar
   7    3   35 1
   8    4    5 ar
   9    4    7 1
  10    5    6 ar
  11    5    9 1
  12    6   36 1
  13    7    8 2
  14    7   11 1
  15    8   13 1
  16    8   37 1
  17   11   12 1
  18   11   38 1
  19   11   39 1
  20   12   13 1
  21   12   22 am
  22   13   14 1
  23   13   20 1
  24   14   15 ar
  25   14   16 ar
  26   15   19 ar
  27   15   40 1
  28   16   17 ar
  29   16   41 1
  30   17   18 ar
  31   17   42 1
  32   18   19 ar
  33   18   43 1
  34   19   44 1
  35   20   21 1
  36   20   45 1
  37   20   46 1
  38   21   47 1
  39   22   23 2
  40   22   24 am
  41   24   25 1
  42   24   26 1
  43   25   48 1
  44   25   49 1
  45   25   50 1
  46   26   27 1
  47   26   28 1
  48   26   51 1
  49   27   31 1
  50   27   52 1
  51   27   53 1
  52   28   29 1
  53   28   32 1
  54   28   54 1
  55   29   30 1
  56   29   55 1
  57   29   56 1
  58   30   31 1
  59   30   33 1
  60   31   57 1
  61   31   58 1
  62   33   59 1
  63   33   60 1
  64   33   61 1

#	End of record

