#	Name: ASD03092713
#	Creating user name:	WinNT
#	Creation time:	15. 06. 2019 20:33

#	Modifying user name:	WinNT
#	Modification time:	15. 06. 2019 20:33

#	Program:	/corina/corina34_cracker 3.40 0067  02.08.2006

@<TRIPOS>MOLECULE
ASD03092713
  47   50    0    0    0
SMALL
NO_CHARGES


@<TRIPOS>ATOM
   1 C1            -1.4095     1.4309    -1.0415 C.3     
   2 C2            -1.6037    -0.0805    -1.1784 C.3     
   3 C3            -0.2054     0.5262    -1.3110 C.3     
   4 C4            -1.5374     2.0269     0.3367 C.2     
   5 O5            -1.7856     1.3132     1.2853 O.2     
   6 N6            -1.3761     3.3530     0.5151 N.am    
   7 C7            -1.5004     3.9324     1.8549 C.3     
   8 C8            -0.1610     3.8196     2.5856 C.3     
   9 C9            -1.3307     6.1825     0.7600 C.ar    
  10 C10           -1.8895     5.3838     1.7404 C.ar    
  11 C11           -2.8118     5.9333     2.6160 C.ar    
  12 C12           -3.1408     7.2775     2.4721 C.ar    
  13 C13           -2.5376     8.0144     1.4636 C.ar    
  14 N14           -1.6643     7.4533     0.6507 N.ar    
  15 O15           -4.0408     7.8601     3.3074 O.3     
  16 O16           -6.4669     7.9967     4.7150 O.3     
  17 C17           -5.2783     7.7211     5.4675 C.3     
  18 C18           -4.7136     7.0054     4.2342 C.3     
  19 C19           -6.2085     6.8106     3.9525 C.3     
  20 C20           -2.2648    -0.5862    -2.4348 C.ar    
  21 C21           -3.4444    -1.3024    -2.3548 C.ar    
  22 C22           -4.0508    -1.7662    -3.5072 C.ar    
  23 C23           -3.4778    -1.5135    -4.7396 C.ar    
  24 C24           -2.2986    -0.7965    -4.8196 C.ar    
  25 C25           -1.6945    -0.3289    -3.6674 C.ar    
  26 H26           -1.7599     2.0596    -1.8602 H       
  27 H27           -1.8240    -0.6438    -0.2716 H       
  28 H28            0.2363     0.5597    -2.3069 H       
  29 H29            0.4942     0.3621    -0.4914 H       
  30 H30           -1.1776     3.9238    -0.2437 H       
  31 H31           -2.2658     3.3940     2.4139 H       
  32 H32           -0.2535     4.2507     3.5825 H       
  33 H33            0.1205     2.7698     2.6684 H       
  34 H34            0.6044     4.3580     2.0266 H       
  35 H35           -0.6078     5.7609     0.0773 H       
  36 H36           -3.2645     5.3328     3.3912 H       
  37 H37           -2.7858     9.0585     1.3431 H       
  38 H38           -4.7214     8.6175     5.7405 H       
  39 H39           -5.4468     7.0561     6.3145 H       
  40 H40           -4.1694     6.0866     4.4531 H       
  41 H41           -6.6199     5.9077     4.4040 H       
  42 H42           -6.4666     6.9091     2.8981 H       
  43 H43           -3.8921    -1.4998    -1.3920 H       
  44 H44           -4.9721    -2.3264    -3.4448 H       
  45 H45           -3.9511    -1.8765    -5.6399 H       
  46 H46           -1.8507    -0.5994    -5.7823 H       
  47 H47           -0.7752     0.2344    -3.7302 H       
@<TRIPOS>BOND
   1    1    2 1
   2    1    3 1
   3    1    4 1
   4    1   26 1
   5    2    3 1
   6    2   20 1
   7    2   27 1
   8    3   28 1
   9    3   29 1
  10    4    5 2
  11    4    6 am
  12    6    7 1
  13    6   30 1
  14    7    8 1
  15    7   10 1
  16    7   31 1
  17    8   32 1
  18    8   33 1
  19    8   34 1
  20    9   10 ar
  21    9   14 ar
  22    9   35 1
  23   10   11 ar
  24   11   12 ar
  25   11   36 1
  26   12   13 ar
  27   12   15 1
  28   13   14 ar
  29   13   37 1
  30   15   18 1
  31   16   17 1
  32   16   19 1
  33   17   18 1
  34   17   38 1
  35   17   39 1
  36   18   19 1
  37   18   40 1
  38   19   41 1
  39   19   42 1
  40   20   21 ar
  41   20   25 ar
  42   21   22 ar
  43   21   43 1
  44   22   23 ar
  45   22   44 1
  46   23   24 ar
  47   23   45 1
  48   24   25 ar
  49   24   46 1
  50   25   47 1

#	End of record

