#	Name: ASD01881388
#	Creating user name:	WinNT
#	Creation time:	15. 06. 2019 19:42

#	Modifying user name:	WinNT
#	Modification time:	15. 06. 2019 19:42

#	Program:	/corina/corina34_cracker 3.40 0067  02.08.2006

@<TRIPOS>MOLECULE
ASD01881388
  53   56    0    0    0
SMALL
NO_CHARGES


@<TRIPOS>ATOM
   1 C1            -0.0187     1.5258     0.0104 C.3     
   2 C2             0.0021    -0.0041     0.0020 C.3     
   3 C3             0.7421    -0.5109     1.2415 C.3     
   4 C4             2.1775     0.0187     1.2307 C.3     
   5 C5             2.1567     1.5485     1.2391 C.3     
   6 C6             1.4167     2.0553    -0.0004 C.3     
   7 O7            -0.7098     1.9991    -1.1473 O.3     
   8 N8             2.8860    -0.4666     2.4176 N.pl3   
   9 C9             2.5172    -0.2123     3.7109 C.2     
  10 C10            3.3765    -0.8014     4.5566 C.2     
  11 C11            4.3778    -1.4894     3.7363 C.ar    
  12 C12            5.5010    -2.2601     4.0254 C.ar    
  13 C13            6.2582    -2.7808     2.9826 C.ar    
  14 C14            5.8912    -2.5301     1.6547 C.ar    
  15 C15            4.7928    -1.7758     1.3669 C.ar    
  16 C16            4.0148    -1.2486     2.3964 C.ar    
  17 O17            8.4197    -4.2643     2.3529 O.3     
  18 B18            7.5273    -3.6510     3.2941 Du      
  19 O19            8.0490    -4.0067     4.5824 O.3     
  20 C20            9.4815    -3.9103     4.4357 C.3     
  21 C21            9.7328    -4.0849     2.9241 C.3     
  22 C22           10.5992    -5.3194     2.6668 C.3     
  23 C23           10.3992    -2.8346     2.3465 C.3     
  24 C24            9.9742    -2.5393     4.9032 C.3     
  25 C25           10.1742    -5.0241     5.2235 C.3     
  26 H26           -0.5289     1.8773     0.9072 H       
  27 H27           -1.0205    -0.3814     0.0098 H       
  28 H28            0.5123    -0.3556    -0.8948 H       
  29 H29            0.2319    -0.1594     2.1383 H       
  30 H30            0.7568    -1.6008     1.2356 H       
  31 H31            2.6876    -0.3328     0.3339 H       
  32 H32            1.6465     1.9000     2.1359 H       
  33 H33            3.1793     1.9258     1.2314 H       
  34 H34            1.9269     1.7038    -0.8972 H       
  35 H35            1.4019     3.1452     0.0056 H       
  36 H36           -0.7617     2.9629    -1.2077 H       
  37 H37            1.6613     0.3761     4.0070 H       
  38 H38            3.3382    -0.7735     5.6355 H       
  39 H39            5.7814    -2.4512     5.0507 H       
  40 H40            6.4849    -2.9383     0.8501 H       
  41 H41            4.5219    -1.5900     0.3381 H       
  42 H42           10.7191    -5.4618     1.5929 H       
  43 H43           11.5776    -5.1787     3.1262 H       
  44 H44           10.1182    -6.1973     3.0982 H       
  45 H45            9.7773    -1.9634     2.5525 H       
  46 H46           11.3780    -2.6992     2.8066 H       
  47 H47           10.5169    -2.9505     1.2691 H       
  48 H48            9.7373    -2.4087     5.9591 H       
  49 H49           11.0530    -2.4733     4.7620 H       
  50 H50            9.4832    -1.7591     4.3215 H       
  51 H51            9.8241    -5.9929     4.8673 H       
  52 H52           11.2526    -4.9528     5.0816 H       
  53 H53            9.9395    -4.9200     6.2828 H       
@<TRIPOS>BOND
   1    1    2 1
   2    1    6 1
   3    1    7 1
   4    1   26 1
   5    2    3 1
   6    2   27 1
   7    2   28 1
   8    3    4 1
   9    3   29 1
  10    3   30 1
  11    4    5 1
  12    4    8 1
  13    4   31 1
  14    5    6 1
  15    5   32 1
  16    5   33 1
  17    6   34 1
  18    6   35 1
  19    7   36 1
  20    8    9 1
  21    8   16 1
  22    9   10 2
  23    9   37 1
  24   10   11 1
  25   10   38 1
  26   11   12 ar
  27   11   16 ar
  28   12   13 ar
  29   12   39 1
  30   13   14 ar
  31   13   18 1
  32   14   15 ar
  33   14   40 1
  34   15   16 ar
  35   15   41 1
  36   17   18 1
  37   17   21 1
  38   18   19 1
  39   19   20 1
  40   20   21 1
  41   20   24 1
  42   20   25 1
  43   21   22 1
  44   21   23 1
  45   22   42 1
  46   22   43 1
  47   22   44 1
  48   23   45 1
  49   23   46 1
  50   23   47 1
  51   24   48 1
  52   24   49 1
  53   24   50 1
  54   25   51 1
  55   25   52 1
  56   25   53 1

#	End of record

