#	Name: ASD02039348
#	Creating user name:	WinNT
#	Creation time:	15. 06. 2019 20:18

#	Modifying user name:	WinNT
#	Modification time:	15. 06. 2019 20:18

#	Program:	/corina/corina34_cracker 3.40 0067  02.08.2006

@<TRIPOS>MOLECULE
ASD02039348
  48   50    0    0    0
SMALL
NO_CHARGES


@<TRIPOS>ATOM
   1 C1            -0.1345     1.5594    -0.1872 C.ar    
   2 C2            -0.1559     0.1782    -0.0590 C.ar    
   3 C3            -1.3631    -0.4923    -0.1419 C.ar    
   4 C4            -2.5123     1.4845    -0.4577 C.ar    
   5 C5            -1.3327     2.2229    -0.3899 C.ar    
   6 C6            -3.8037     2.1801    -0.6743 C.ar    
   7 C7             1.1630     2.3211    -0.1015 C.3     
   8 N8             1.8163     2.3218    -1.4127 N.am    
   9 C9             1.4075     3.2891    -2.4343 C.3     
  10 C10            2.7935     1.4327    -1.6793 C.2     
  11 C11            3.1433     0.4027    -0.6857 C.2     
  12 C12            4.1488    -0.5130    -0.7933 C.2     
  13 N13            2.5275     0.1957     0.5064 N.2     
  14 C14            3.1089    -0.7982     1.1135 C.2     
  15 N15            4.1202    -1.2621     0.3340 N.pl3   
  16 O16            3.3866     1.4807    -2.7400 O.2     
  17 C17            5.0183    -2.3740     0.6554 C.3     
  18 C18           -4.9878     1.4458    -0.7431 C.ar    
  19 N19           -2.4882     0.1628    -0.3403 N.ar    
  20 C20            2.5761     4.2261    -2.7462 C.3     
  21 C21            0.9972     2.5446    -3.7064 C.3     
  22 C22           -3.8342     3.5688    -0.8034 C.ar    
  23 C23           -5.0328     4.2159    -1.0036 C.ar    
  24 C24           -6.2190     3.4811    -1.0780 C.ar    
  25 C25           -6.1876     2.0904    -0.9442 C.ar    
  26 C26           -7.4664     4.1530    -1.2858 C.1     
  27 N27           -8.4560     4.6860    -1.4506 N.1     
  28 H28            0.7613    -0.3685     0.1036 H       
  29 H29           -1.3831    -1.5675    -0.0429 H       
  30 H30           -1.3536     3.2985    -0.4856 H       
  31 H31            0.9621     3.3476     0.2050 H       
  32 H32            1.8163     1.8448     0.6297 H       
  33 H33            0.5631     3.8716    -2.0658 H       
  34 H34            4.8357    -0.6201    -1.6197 H       
  35 H35            2.8337    -1.1890     2.0819 H       
  36 H36            4.5915    -3.3052     0.2828 H       
  37 H37            5.9877    -2.2054     0.1862 H       
  38 H38            5.1441    -2.4388     1.7361 H       
  39 H39           -4.9633     0.3711    -0.6390 H       
  40 H40            3.4479     3.6371    -3.0312 H       
  41 H41            2.3014     4.8889    -3.5667 H       
  42 H42            2.8117     4.8197    -1.8629 H       
  43 H43            0.1124     1.9409    -3.5046 H       
  44 H44            0.7737     3.2652    -4.4930 H       
  45 H45            1.8131     1.8973    -4.0277 H       
  46 H46           -2.9173     4.1365    -0.7458 H       
  47 H47           -5.0563     5.2911    -1.1028 H       
  48 H48           -7.1036     1.5213    -1.0019 H       
@<TRIPOS>BOND
   1    1    2 ar
   2    1    7 1
   3    1    5 ar
   4    2    3 ar
   5    2   28 1
   6    3   19 ar
   7    3   29 1
   8    4    5 ar
   9    4    6 1
  10    4   19 ar
  11    5   30 1
  12    6   18 ar
  13    6   22 ar
  14    7    8 1
  15    7   31 1
  16    7   32 1
  17    8    9 1
  18    8   10 am
  19    9   21 1
  20    9   20 1
  21    9   33 1
  22   10   11 1
  23   10   16 2
  24   11   12 2
  25   11   13 1
  26   12   15 1
  27   12   34 1
  28   13   14 2
  29   14   15 1
  30   14   35 1
  31   15   17 1
  32   17   36 1
  33   17   37 1
  34   17   38 1
  35   18   25 ar
  36   18   39 1
  37   20   40 1
  38   20   41 1
  39   20   42 1
  40   21   43 1
  41   21   44 1
  42   21   45 1
  43   22   23 ar
  44   22   46 1
  45   23   24 ar
  46   23   47 1
  47   24   25 ar
  48   24   26 1
  49   25   48 1
  50   26   27 3

#	End of record

