#	Name: ASD00060050
#	Creating user name:	WinNT
#	Creation time:	15. 06. 2019 18:29

#	Modifying user name:	WinNT
#	Modification time:	15. 06. 2019 18:29

#	Program:	/corina/corina34_cracker 3.40 0067  02.08.2006

@<TRIPOS>MOLECULE
ASD00060050
  45   47    0    0    0
SMALL
NO_CHARGES


@<TRIPOS>ATOM
   1 C1             1.7592    -0.2223    -3.4746 C.ar    
   2 C2             2.6482    -1.0598    -4.1213 C.ar    
   3 C3             4.0081    -0.8270    -4.0313 C.ar    
   4 C4             4.4791     0.2434    -3.2946 C.ar    
   5 C5             3.5907     1.0817    -2.6473 C.ar    
   6 C6             2.2302     0.8494    -2.7374 C.ar    
   7 C7             4.1044     2.2481    -1.8432 C.3     
   8 C8             5.3459     2.8244    -2.5251 C.3     
   9 C9             5.9855     3.8570    -1.5891 C.3     
  10 C10            6.5411     3.1229    -0.3662 C.3     
  11 C11            5.4989     2.1959     0.1903 C.2     
  12 N12            4.4254     1.7992    -0.4942 N.am    
  13 C13            4.9497     3.4904    -3.8176 C.2     
  14 O14            5.7621     3.4230    -4.8840 O.3     
  15 O15            3.9007     4.0852    -3.8939 O.2     
  16 C16            3.5113     0.8528     0.1502 C.3     
  17 O17            5.6414     1.7857     1.3227 O.2     
  18 C18            3.9811    -0.5772    -0.1242 C.3     
  19 C19            3.1555    -1.9945     1.7663 C.ar    
  20 C20            2.2513    -2.8881     2.3089 C.ar    
  21 C21            1.1856    -3.3395     1.5509 C.ar    
  22 C22            1.0256    -2.8961     0.2501 C.ar    
  23 C23            1.9304    -2.0025    -0.2913 C.ar    
  24 C24            2.9951    -1.5518     0.4665 C.ar    
  25 Cl25           0.0498    -4.4622     2.2314 Cl      
  26 Br26           1.0144     1.9958    -1.8523 Br      
  27 H27            0.6968    -0.4019    -3.5484 H       
  28 H28            2.2806    -1.8965    -4.6968 H       
  29 H29            4.7025    -1.4819    -4.5366 H       
  30 H30            5.5415     0.4247    -3.2242 H       
  31 H31            3.3332     3.0165    -1.7900 H       
  32 H32            6.0573     2.0235    -2.7268 H       
  33 H33            6.7949     4.3708    -2.1078 H       
  34 H34            5.2341     4.5805    -1.2728 H       
  35 H35            7.4194     2.5470    -0.6578 H       
  36 H36            6.8228     3.8500     0.3954 H       
  37 H37            5.4651     3.8656    -5.6908 H       
  38 H38            3.5014     1.0320     1.2253 H       
  39 H39            2.5066     0.9883    -0.2501 H       
  40 H40            4.0495    -0.7369    -1.2003 H       
  41 H41            4.9603    -0.7312     0.3290 H       
  42 H42            3.9849    -1.6386     2.3594 H       
  43 H43            2.3769    -3.2341     3.3242 H       
  44 H44            0.1941    -3.2484    -0.3422 H       
  45 H45            1.8059    -1.6566    -1.3068 H       
@<TRIPOS>BOND
   1    1    2 ar
   2    1    6 ar
   3    1   27 1
   4    2    3 ar
   5    2   28 1
   6    3    4 ar
   7    3   29 1
   8    4    5 ar
   9    4   30 1
  10    5    6 ar
  11    5    7 1
  12    6   26 1
  13    7    8 1
  14    7   12 1
  15    7   31 1
  16    8    9 1
  17    8   13 1
  18    8   32 1
  19    9   10 1
  20    9   33 1
  21    9   34 1
  22   10   11 1
  23   10   35 1
  24   10   36 1
  25   11   12 am
  26   11   17 2
  27   12   16 1
  28   13   14 1
  29   13   15 2
  30   14   37 1
  31   16   18 1
  32   16   38 1
  33   16   39 1
  34   18   24 1
  35   18   40 1
  36   18   41 1
  37   19   20 ar
  38   19   24 ar
  39   19   42 1
  40   20   21 ar
  41   20   43 1
  42   21   22 ar
  43   21   25 1
  44   22   23 ar
  45   22   44 1
  46   23   24 ar
  47   23   45 1

#	End of record

