#	Name: ASD03730252
#	Creating user name:	WinNT
#	Creation time:	15. 06. 2019 20:44

#	Modifying user name:	WinNT
#	Modification time:	15. 06. 2019 20:44

#	Program:	/corina/corina34_cracker 3.40 0067  02.08.2006

@<TRIPOS>MOLECULE
ASD03730252
  60   65    0    0    0
SMALL
NO_CHARGES


@<TRIPOS>ATOM
   1 O1             3.2307     2.7259    -2.8976 O.3     
   2 C2             3.2287     1.3198    -3.2073 C.3     
   3 O3             4.5804     0.9071    -2.9325 O.3     
   4 C4             5.0408     1.7726    -1.9818 C.ar    
   5 C5             4.2113     2.8914    -1.9618 C.ar    
   6 C6             6.1173     1.6944    -1.1168 C.ar    
   7 C7             6.3806     2.7283    -0.2234 C.ar    
   8 C8             5.5506     3.8452    -0.2192 C.ar    
   9 C9             4.4734     3.9238    -1.0769 C.ar    
  10 O10            7.3647     2.8406     0.7141 O.3     
  11 C11            6.1028     4.7859     0.8181 C.3     
  12 C12            7.5040     4.2233     1.0934 C.3     
  13 N13            5.4287     6.9366     1.1956 N.am    
  14 C14            6.1562     6.2045     0.3285 C.2     
  15 C15            5.2622     4.8257     2.0594 C.ar    
  16 C16            4.8438     3.8614     2.9660 C.ar    
  17 C17            4.0456     4.2279     4.0494 C.ar    
  18 C18            3.6774     5.5488     4.2115 C.ar    
  19 C19            4.0941     6.5072     3.3102 C.ar    
  20 C20            4.8920     6.1559     2.2227 C.ar    
  21 O21            6.7398     6.6117    -0.6537 O.2     
  22 C22            5.2249     8.3823     1.0754 C.3     
  23 C23            3.9724     8.6530     0.2394 C.3     
  24 C24            3.7596    10.1630     0.1139 C.3     
  25 C25            2.5071    10.4337    -0.7221 C.3     
  26 C26            2.2942    11.9436    -0.8476 C.3     
  27 C27            5.2442     2.4448     2.7829 C.ar    
  28 C28            4.4003     1.5722     2.1016 C.ar    
  29 C29            4.7848     0.2514     1.9360 C.ar    
  30 C30            6.0022    -0.1547     2.4577 C.ar    
  31 C31            6.7971     0.7674     3.1273 C.ar    
  32 N32            6.4064     2.0223     3.2654 N.ar    
  33 O33            7.9903     0.3762     3.6410 O.3     
  34 C34            8.8130     1.3926     4.2175 C.3     
  35 H35            2.5275     0.7872    -2.5649 H       
  36 H36            2.9852     1.1593    -4.2576 H       
  37 H37            6.7576     0.8249    -1.1346 H       
  38 H38            3.8324     4.7928    -1.0582 H       
  39 H39            7.7558     4.3113     2.1502 H       
  40 H40            8.2498     4.7214     0.4738 H       
  41 H41            3.7168     3.4821     4.7579 H       
  42 H42            3.0591     5.8339     5.0498 H       
  43 H43            3.7991     7.5370     3.4482 H       
  44 H44            5.0999     8.8154     2.0678 H       
  45 H45            6.0905     8.8321     0.5891 H       
  46 H46            4.0974     8.2200    -0.7530 H       
  47 H47            3.1068     8.2033     0.7257 H       
  48 H48            3.6346    10.5960     1.1063 H       
  49 H49            4.6252    10.6127    -0.3724 H       
  50 H50            2.6321    10.0006    -1.7145 H       
  51 H51            1.6414     9.9839    -0.2358 H       
  52 H52            1.4019    12.1365    -1.4432 H       
  53 H53            2.1693    12.3767     0.1448 H       
  54 H54            3.1599    12.3934    -1.3340 H       
  55 H55            3.4571     1.9205     1.7071 H       
  56 H56            4.1489    -0.4466     1.4119 H       
  57 H57            6.3298    -1.1777     2.3455 H       
  58 H58            9.6966     0.9355     4.6629 H       
  59 H59            9.1189     2.0954     3.4426 H       
  60 H60            8.2509     1.9219     4.9869 H       
@<TRIPOS>BOND
   1    1    2 1
   2    1    5 1
   3    2    3 1
   4    2   35 1
   5    2   36 1
   6    3    4 1
   7    4    5 ar
   8    4    6 ar
   9    5    9 ar
  10    6    7 ar
  11    6   37 1
  12    7    8 ar
  13    7   10 1
  14    8    9 ar
  15    8   11 1
  16    9   38 1
  17   10   12 1
  18   11   12 1
  19   11   14 1
  20   11   15 1
  21   12   39 1
  22   12   40 1
  23   13   14 am
  24   13   20 1
  25   13   22 1
  26   14   21 2
  27   15   16 ar
  28   15   20 ar
  29   16   17 ar
  30   16   27 1
  31   17   18 ar
  32   17   41 1
  33   18   19 ar
  34   18   42 1
  35   19   20 ar
  36   19   43 1
  37   22   23 1
  38   22   44 1
  39   22   45 1
  40   23   24 1
  41   23   46 1
  42   23   47 1
  43   24   25 1
  44   24   48 1
  45   24   49 1
  46   25   26 1
  47   25   50 1
  48   25   51 1
  49   26   52 1
  50   26   53 1
  51   26   54 1
  52   27   28 ar
  53   27   32 ar
  54   28   29 ar
  55   28   55 1
  56   29   30 ar
  57   29   56 1
  58   30   31 ar
  59   30   57 1
  60   31   32 ar
  61   31   33 1
  62   33   34 1
  63   34   58 1
  64   34   59 1
  65   34   60 1

#	End of record

