#	Name: ASD04590844
#	Creating user name:	WinNT
#	Creation time:	15. 06. 2019 20:51

#	Modifying user name:	WinNT
#	Modification time:	15. 06. 2019 20:51

#	Program:	/corina/corina34_cracker 3.40 0067  02.08.2006

@<TRIPOS>MOLECULE
ASD04590844
  67   72    0    0    0
SMALL
NO_CHARGES


@<TRIPOS>ATOM
   1 N1            -0.0171     1.3232    -0.0119 N.ar    
   2 C2             0.0017    -0.0035    -0.0051 C.ar    
   3 N3             1.1298    -0.6949    -0.0118 N.ar    
   4 C4             2.3050    -0.0728    -0.0262 C.ar    
   5 C5             2.3189     1.3366    -0.0341 C.ar    
   6 C6             1.1072     2.0202    -0.0262 C.ar    
   7 N7             3.6031    -0.5195    -0.0358 N.pl3   
   8 C8             4.4823     0.5495    -0.0499 C.ar    
   9 C9             3.7312     1.7385    -0.0495 C.ar    
  10 C10            5.8680     0.6418    -0.0633 C.ar    
  11 N11            6.4613     1.8181    -0.0753 N.ar    
  12 C12            5.7850     2.9533    -0.0753 C.ar    
  13 C13            4.4063     2.9585    -0.0629 C.ar    
  14 N14           -1.2019    -0.6887     0.0098 N.pl3   
  15 C15           -2.4019     0.0120     0.1303 C.ar    
  16 N16           -2.3783     1.3196     0.3309 N.ar    
  17 C17           -3.4885     2.0229     0.4509 C.ar    
  18 C18           -4.7291     1.4087     0.3703 C.ar    
  19 C19           -4.7935     0.0321     0.1596 C.ar    
  20 C20           -3.6094    -0.6709     0.0326 C.ar    
  21 N21           -5.9023     2.1615     0.4995 N.3     
  22 C22            4.0018    -1.9292    -0.0312 C.3     
  23 C23           -5.5955     3.5813     0.7146 C.3     
  24 C24           -6.8902     4.3474     0.9957 C.3     
  25 C25           -7.8414     4.1860    -0.1933 C.3     
  26 C26           -8.1064     2.6960    -0.4263 C.3     
  27 C27           -6.7764     1.9778    -0.6661 C.3     
  28 N28           -9.1086     4.8707     0.0953 N.3     
  29 C29          -10.0021     4.8379    -1.0703 C.3     
  30 C30           -9.7627     4.2918     1.2764 C.3     
  31 C31            3.4566    -2.6015     1.2253 C.3     
  32 C32            4.0830    -3.9888     1.3894 C.3     
  33 S33            3.5956    -5.0236    -0.0230 S.3     
  34 C34            4.0869    -3.9968    -1.4399 C.3     
  35 C35            3.4601    -2.6086    -1.2855 C.3     
  36 H36            1.0848     3.1000    -0.0316 H       
  37 H37            6.4645    -0.2585    -0.0635 H       
  38 H38            6.3203     3.8912    -0.0851 H       
  39 H39            3.8596     3.8899    -0.0633 H       
  40 H40           -1.2103    -1.6559    -0.0635 H       
  41 H41           -3.4301     3.0889     0.6140 H       
  42 H42           -5.7459    -0.4729     0.0926 H       
  43 H43           -3.6221    -1.7382    -0.1317 H       
  44 H44            5.0898    -1.9945    -0.0299 H       
  45 H45           -4.9217     3.6824     1.5654 H       
  46 H46           -5.1185     3.9889    -0.1767 H       
  47 H47           -7.3607     3.9494     1.8947 H       
  48 H48           -6.6639     5.4039     1.1398 H       
  49 H49           -7.3872     4.6189    -1.0846 H       
  50 H50           -8.5960     2.2720     0.4504 H       
  51 H51           -8.7490     2.5726    -1.2980 H       
  52 H52           -6.2939     2.3929    -1.5510 H       
  53 H53           -6.9603     0.9142    -0.8182 H       
  54 H54          -10.2166     3.8024    -1.3346 H       
  55 H55          -10.9327     5.3517    -0.8293 H       
  56 H56           -9.5199     5.3353    -1.9118 H       
  57 H57           -9.1064     4.3921     2.1409 H       
  58 H58          -10.6984     4.8171     1.4677 H       
  59 H59           -9.9685     3.2365     1.0971 H       
  60 H60            3.6967    -1.9908     2.0956 H       
  61 H61            2.3743    -2.7007     1.1421 H       
  62 H62            5.1689    -3.8981     1.4182 H       
  63 H63            3.7279    -4.4428     2.3145 H       
  64 H64            5.1728    -3.9063    -1.4663 H       
  65 H65            3.7343    -4.4560    -2.3634 H       
  66 H66            2.3775    -2.7073    -1.2047 H       
  67 H67            3.7026    -2.0028    -2.1586 H       
@<TRIPOS>BOND
   1    1    2 ar
   2    1    6 ar
   3    2    3 ar
   4    2   14 1
   5    3    4 ar
   6    4    5 ar
   7    4    7 1
   8    5    6 ar
   9    5    9 1
  10    6   36 1
  11    7    8 1
  12    7   22 1
  13    8    9 ar
  14    8   10 ar
  15    9   13 ar
  16   10   11 ar
  17   10   37 1
  18   11   12 ar
  19   12   13 ar
  20   12   38 1
  21   13   39 1
  22   14   15 1
  23   14   40 1
  24   15   16 ar
  25   15   20 ar
  26   16   17 ar
  27   17   18 ar
  28   17   41 1
  29   18   19 ar
  30   18   21 1
  31   19   20 ar
  32   19   42 1
  33   20   43 1
  34   21   23 1
  35   21   27 1
  36   22   31 1
  37   22   35 1
  38   22   44 1
  39   23   24 1
  40   23   45 1
  41   23   46 1
  42   24   25 1
  43   24   47 1
  44   24   48 1
  45   25   26 1
  46   25   28 1
  47   25   49 1
  48   26   27 1
  49   26   50 1
  50   26   51 1
  51   27   52 1
  52   27   53 1
  53   28   29 1
  54   28   30 1
  55   29   54 1
  56   29   55 1
  57   29   56 1
  58   30   57 1
  59   30   58 1
  60   30   59 1
  61   31   32 1
  62   31   60 1
  63   31   61 1
  64   32   33 1
  65   32   62 1
  66   32   63 1
  67   33   34 1
  68   34   35 1
  69   34   64 1
  70   34   65 1
  71   35   66 1
  72   35   67 1

#	End of record

