#	Name: ASD01208423
#	Creating user name:	WinNT
#	Creation time:	15. 06. 2019 19:09

#	Modifying user name:	WinNT
#	Modification time:	15. 06. 2019 19:09

#	Program:	/corina/corina34_cracker 3.40 0067  02.08.2006

@<TRIPOS>MOLECULE
ASD01208423
  19   20    0    0    0
SMALL
NO_CHARGES


@<TRIPOS>ATOM
   1 S1            -0.0218     1.7575     0.0117 S.3     
   2 C2             0.0021    -0.0041     0.0020 C.2     
   3 N3             1.2410    -0.4127    -0.0120 N.2     
   4 C4             2.1734     0.5128    -0.0159 C.2     
   5 C5             1.7404     1.7771    -0.0050 C.2     
   6 N6            -1.1807    -2.2479     0.0020 N.pl3   
   7 C7            -1.1847    -0.8747     0.0094 C.2     
   8 C8            -2.4858    -0.4609     0.0249 C.2     
   9 C9            -3.2896    -1.6106     0.0269 C.2     
  10 C10           -2.4709    -2.6858     0.0128 C.2     
  11 C11            2.6097     3.0081    -0.0067 C.3     
  12 H12            3.2250     0.2670    -0.0270 H       
  13 H13           -0.3916    -2.8118    -0.0127 H       
  14 H14           -2.8320     0.5621     0.0344 H       
  15 H15           -4.3693    -1.6326     0.0383 H       
  16 H16           -2.7863    -3.7187     0.0099 H       
  17 H17            1.9799     3.8976     0.0045 H       
  18 H18            3.2478     3.0035     0.8770 H       
  19 H19            3.2302     3.0135    -0.9029 H       
@<TRIPOS>BOND
   1    1    2 1
   2    1    5 1
   3    2    3 2
   4    2    7 1
   5    3    4 1
   6    4    5 2
   7    4   12 1
   8    5   11 1
   9    6    7 1
  10    6   10 1
  11    6   13 1
  12    7    8 2
  13    8    9 1
  14    8   14 1
  15    9   10 2
  16    9   15 1
  17   10   16 1
  18   11   17 1
  19   11   18 1
  20   11   19 1

#	End of record

