#	Name: ASD03730236
#	Creating user name:	WinNT
#	Creation time:	15. 06. 2019 20:44

#	Modifying user name:	WinNT
#	Modification time:	15. 06. 2019 20:44

#	Program:	/corina/corina34_cracker 3.40 0067  02.08.2006

@<TRIPOS>MOLECULE
ASD03730236
  63   68    0    0    0
SMALL
NO_CHARGES


@<TRIPOS>ATOM
   1 O1            -0.4818     1.1017     1.4047 O.3     
   2 C2            -0.4046    -0.3338     1.4862 C.3     
   3 O3             0.6637    -0.6706     0.5816 O.3     
   4 C4             1.4782     0.4251     0.5536 C.ar    
   5 C5             0.7728     1.5150     1.0587 C.ar    
   6 C6             2.7862     0.5830     0.1324 C.ar    
   7 C7             3.4062     1.8264     0.2084 C.ar    
   8 C8             2.6888     2.9097     0.7069 C.ar    
   9 C9             1.3863     2.7541     1.1328 C.ar    
  10 O10            4.6765     2.1891    -0.1307 O.3     
  11 C11            3.6065     4.1008     0.6370 C.3     
  12 C12            4.7370     3.6203    -0.2832 C.3     
  13 N13            3.0343     6.2787     1.0258 N.am    
  14 C14            2.9178     5.3173     0.0882 C.2     
  15 C15            4.1181     4.5088     1.9863 C.ar    
  16 C16            4.8302     3.8529     2.9808 C.ar    
  17 C17            5.1643     4.5279     4.1543 C.ar    
  18 C18            4.7835     5.8450     4.3184 C.ar    
  19 C19            4.0749     6.4965     3.3295 C.ar    
  20 C20            3.7346     5.8352     2.1507 C.ar    
  21 O21            2.3661     5.4155    -0.9874 O.2     
  22 C22            2.4899     7.6311     0.8822 C.3     
  23 C23            1.0626     7.6675     1.4322 C.3     
  24 C24            0.4941     9.0800     1.2822 C.3     
  25 C25           -0.9332     9.1163     1.8322 C.3     
  26 C26           -1.5018    10.5288     1.6822 C.3     
  27 C27            5.2353     2.4373     2.7956 C.ar    
  28 C28            6.1332     2.0932     1.7873 C.ar    
  29 C29            6.5069     0.7752     1.6198 C.ar    
  30 C30            5.9913    -0.2034     2.4504 C.ar    
  31 C31            5.0993     0.1326     3.4527 C.ar    
  32 C32            4.7235     1.4483     3.6331 C.ar    
  33 C33            4.5411    -0.9393     4.3531 C.3     
  34 F34            4.9746    -2.1933     3.9096 F       
  35 F35            4.9872    -0.7277     5.6621 F       
  36 F36            3.1432    -0.8918     4.3235 F       
  37 C37            7.4779     0.4014     0.5297 C.3     
  38 F38            8.7841     0.4648     1.0268 F       
  39 F39            7.2086    -0.8995     0.0911 F       
  40 F40            7.3427     1.2919    -0.5408 F       
  41 H41           -0.1602    -0.6472     2.5011 H       
  42 H42           -1.3404    -0.7870     1.1592 H       
  43 H43            3.3300    -0.2646    -0.2578 H       
  44 H44            0.8431     3.6013     1.5244 H       
  45 H45            5.6998     4.0050     0.0531 H       
  46 H46            4.5436     3.9080    -1.3166 H       
  47 H47            5.7183     4.0227     4.9317 H       
  48 H48            5.0416     6.3688     5.2269 H       
  49 H49            3.7820     7.5265     3.4699 H       
  50 H50            3.1112     8.3338     1.4375 H       
  51 H51            2.4803     7.9089    -0.1718 H       
  52 H52            0.4413     6.9649     0.8769 H       
  53 H53            1.0722     7.3897     2.4861 H       
  54 H54            1.1154     9.7826     1.8375 H       
  55 H55            0.4845     9.3578     0.2282 H       
  56 H56           -1.5546     8.4137     1.2769 H       
  57 H57           -0.9236     8.8385     2.8861 H       
  58 H58           -0.8804    11.2314     2.2375 H       
  59 H59           -1.5113    10.8066     0.6282 H       
  60 H60           -2.5186    10.5547     2.0740 H       
  61 H61            6.5358     2.8564     1.1378 H       
  62 H62            6.2861    -1.2336     2.3156 H       
  63 H63            4.0304     1.7102     4.4188 H       
@<TRIPOS>BOND
   1    1    2 1
   2    1    5 1
   3    2    3 1
   4    2   41 1
   5    2   42 1
   6    3    4 1
   7    4    5 ar
   8    4    6 ar
   9    5    9 ar
  10    6    7 ar
  11    6   43 1
  12    7    8 ar
  13    7   10 1
  14    8    9 ar
  15    8   11 1
  16    9   44 1
  17   10   12 1
  18   11   12 1
  19   11   14 1
  20   11   15 1
  21   12   45 1
  22   12   46 1
  23   13   14 am
  24   13   20 1
  25   13   22 1
  26   14   21 2
  27   15   16 ar
  28   15   20 ar
  29   16   17 ar
  30   16   27 1
  31   17   18 ar
  32   17   47 1
  33   18   19 ar
  34   18   48 1
  35   19   20 ar
  36   19   49 1
  37   22   23 1
  38   22   50 1
  39   22   51 1
  40   23   24 1
  41   23   52 1
  42   23   53 1
  43   24   25 1
  44   24   54 1
  45   24   55 1
  46   25   26 1
  47   25   56 1
  48   25   57 1
  49   26   58 1
  50   26   59 1
  51   26   60 1
  52   27   28 ar
  53   27   32 ar
  54   28   29 ar
  55   28   61 1
  56   29   30 ar
  57   29   37 1
  58   30   31 ar
  59   30   62 1
  60   31   32 ar
  61   31   33 1
  62   32   63 1
  63   33   34 1
  64   33   35 1
  65   33   36 1
  66   37   38 1
  67   37   39 1
  68   37   40 1

#	End of record

