#	Name: ASD03090454
#	Creating user name:	WinNT
#	Creation time:	15. 06. 2019 20:28

#	Modifying user name:	WinNT
#	Modification time:	15. 06. 2019 20:28

#	Program:	/corina/corina34_cracker 3.40 0067  02.08.2006

@<TRIPOS>MOLECULE
ASD03090454
  44   47    0    0    0
SMALL
NO_CHARGES


@<TRIPOS>ATOM
   1 C1             0.7581     1.4154    -0.4019 C.2     
   2 C2             0.5737    -0.0456    -0.3015 C.ar    
   3 C3             1.5327    -0.9110    -0.8345 C.ar    
   4 C4             1.3574    -2.2733    -0.7384 C.ar    
   5 C5             0.2278    -2.7882    -0.1126 C.ar    
   6 C6            -0.7286    -1.9305     0.4189 C.ar    
   7 C7            -0.5575    -0.5670     0.3319 C.ar    
   8 O8             1.7454     1.8674    -0.9489 O.2     
   9 N9            -0.1707     2.2485     0.1078 N.am    
  10 O10            0.0581    -4.1313    -0.0206 O.3     
  11 C11            0.5843    -4.7685     1.0581 C.ar    
  12 C12            1.1758    -4.0362     2.0775 C.ar    
  13 C13            1.7101    -4.6864     3.1730 C.ar    
  14 C14            1.6558    -6.0657     3.2542 C.ar    
  15 C15            1.0672    -6.7977     2.2395 C.ar    
  16 C16            0.5260    -6.1521     1.1448 C.ar    
  17 C17            0.0123     3.6986     0.0081 C.3     
  18 N18           -4.5599     5.8009     0.0073 N.pl3   
  19 C19           -5.2716     6.3829     1.0207 C.2     
  20 C20           -4.5625     6.3427     2.1597 C.2     
  21 C21           -3.2928     5.6808     1.8505 C.ar    
  22 C22           -2.1630     5.3494     2.6011 C.ar    
  23 C23           -1.1116     4.7163     2.0008 C.ar    
  24 C24           -1.1580     4.3979     0.6503 C.ar    
  25 C25           -2.2628     4.7152    -0.1088 C.ar    
  26 C26           -3.3446     5.3608     0.4817 C.ar    
  27 H27            2.4102    -0.5118    -1.3215 H       
  28 H28            2.0981    -2.9428    -1.1501 H       
  29 H29           -1.6050    -2.3342     0.9041 H       
  30 H30           -1.2989     0.0987     0.7487 H       
  31 H31           -0.9603     1.8879     0.5407 H       
  32 H32            1.2189    -2.9589     2.0144 H       
  33 H33            2.1709    -4.1170     3.9665 H       
  34 H34            2.0740    -6.5721     4.1115 H       
  35 H35            1.0267    -7.8750     2.3050 H       
  36 H36            0.0621    -6.7241     0.3548 H       
  37 H37            0.9316     3.9847     0.5192 H       
  38 H38            0.0757     3.9855    -1.0415 H       
  39 H39           -4.8674     5.7084    -0.9080 H       
  40 H40           -6.2577     6.8115     0.9191 H       
  41 H41           -4.8697     6.7257     3.1217 H       
  42 H42           -2.1198     5.5940     3.6522 H       
  43 H43           -0.2378     4.4605     2.5817 H       
  44 H44           -2.2892     4.4636    -1.1587 H       
@<TRIPOS>BOND
   1    1    2 1
   2    1    8 2
   3    1    9 am
   4    2    3 ar
   5    2    7 ar
   6    3    4 ar
   7    3   27 1
   8    4    5 ar
   9    4   28 1
  10    5    6 ar
  11    5   10 1
  12    6    7 ar
  13    6   29 1
  14    7   30 1
  15    9   17 1
  16    9   31 1
  17   10   11 1
  18   11   12 ar
  19   11   16 ar
  20   12   13 ar
  21   12   32 1
  22   13   14 ar
  23   13   33 1
  24   14   15 ar
  25   14   34 1
  26   15   16 ar
  27   15   35 1
  28   16   36 1
  29   17   24 1
  30   17   37 1
  31   17   38 1
  32   18   19 1
  33   18   26 1
  34   18   39 1
  35   19   20 2
  36   19   40 1
  37   20   21 1
  38   20   41 1
  39   21   22 ar
  40   21   26 ar
  41   22   23 ar
  42   22   42 1
  43   23   24 ar
  44   23   43 1
  45   24   25 ar
  46   25   26 ar
  47   25   44 1

#	End of record

