#	Name: ASD01840351
#	Creating user name:	WinNT
#	Creation time:	15. 06. 2019 19:37

#	Modifying user name:	WinNT
#	Modification time:	15. 06. 2019 19:37

#	Program:	/corina/corina34_cracker 3.40 0067  02.08.2006

@<TRIPOS>MOLECULE
ASD01840351
  54   57    0    0    0
SMALL
NO_CHARGES


@<TRIPOS>ATOM
   1 C1             0.7065     1.0560    -0.2381 C.ar    
   2 C2             0.9953    -0.2687    -0.4822 C.ar    
   3 N3             2.2340    -0.7134    -0.3583 N.ar    
   4 N4             3.2082     0.0431    -0.0136 N.ar    
   5 C5             1.7677     1.9081     0.1436 C.ar    
   6 C6             1.7648     3.3246     0.4592 C.2     
   7 C7             3.0456     1.3422     0.2475 C.ar    
   8 S8             4.2094     2.5681     0.7303 S.3     
   9 C9             2.9835     3.8194     0.7892 C.2     
  10 C10           -0.6984     1.5825    -0.3800 C.3     
  11 C11           -0.1047    -1.2141    -0.8912 C.3     
  12 N12            0.6163     4.1038     0.4263 N.pl3   
  13 C13            3.2411     5.2137     1.1465 C.2     
  14 N14            4.4908     5.6092     1.4598 N.am    
  15 C15            4.7489     7.0062     1.8178 C.3     
  16 C16            5.9925     7.1992     2.7045 C.3     
  17 C17            5.5191     7.7901     0.7398 C.3     
  18 N18            6.2923     8.3687     1.8558 N.am    
  19 C19            6.9915     9.5077     2.0299 C.2     
  20 C20            7.5587     9.8291     3.3508 C.ar    
  21 O21            7.1541    10.2702     1.0964 O.2     
  22 C22            8.0016     8.8042     4.1930 C.ar    
  23 C23            8.5311     9.1083     5.4254 C.ar    
  24 C24            8.6283    10.4338     5.8389 C.ar    
  25 C25            8.1917    11.4579     5.0119 C.ar    
  26 C26            7.6622    11.1650     3.7667 C.ar    
  27 O27            2.3266     6.0174     1.1609 O.2     
  28 O28            9.1520    10.7251     7.0565 O.3     
  29 C29            9.5819     9.6232     7.8584 C.3     
  30 O30            7.2402    12.1657     2.9539 O.3     
  31 C31            7.3768    13.5010     3.4442 C.3     
  32 H32           -1.1780     1.6066     0.5985 H       
  33 H33           -0.6686     2.5900    -0.7950 H       
  34 H34           -1.2647     0.9317    -1.0463 H       
  35 H35           -0.1922    -1.2213    -1.9777 H       
  36 H36            0.1299    -2.2186    -0.5389 H       
  37 H37           -1.0473    -0.8862    -0.4529 H       
  38 H38           -0.2318     3.7073     0.1725 H       
  39 H39            0.6619     5.0449     0.6571 H       
  40 H40            5.2194     4.9689     1.4483 H       
  41 H41            3.8621     7.5209     2.1876 H       
  42 H42            5.7596     7.4547     3.7382 H       
  43 H43            6.7229     6.3948     2.6179 H       
  44 H44            6.1104     7.1593     0.0762 H       
  45 H45            4.9083     8.5174     0.2049 H       
  46 H46            7.9275     7.7744     3.8759 H       
  47 H47            8.8723     8.3157     6.0748 H       
  48 H48            8.2690    12.4847     5.3376 H       
  49 H49            9.9788     9.9944     8.8033 H       
  50 H50            8.7361     8.9640     8.0535 H       
  51 H51           10.3589     9.0707     7.3300 H       
  52 H52            7.0027    14.2021     2.6981 H       
  53 H53            6.8039    13.6103     4.3650 H       
  54 H54            8.4280    13.7091     3.6435 H       
@<TRIPOS>BOND
   1    1    2 ar
   2    1    5 ar
   3    1   10 1
   4    2    3 ar
   5    2   11 1
   6    3    4 ar
   7    4    7 ar
   8    5    7 ar
   9    5    6 1
  10    6    9 2
  11    6   12 1
  12    7    8 1
  13    8    9 1
  14    9   13 1
  15   10   32 1
  16   10   33 1
  17   10   34 1
  18   11   35 1
  19   11   36 1
  20   11   37 1
  21   12   38 1
  22   12   39 1
  23   13   14 am
  24   13   27 2
  25   14   15 1
  26   14   40 1
  27   15   16 1
  28   15   17 1
  29   15   41 1
  30   16   18 1
  31   16   42 1
  32   16   43 1
  33   17   18 1
  34   17   44 1
  35   17   45 1
  36   18   19 am
  37   19   20 1
  38   19   21 2
  39   20   22 ar
  40   20   26 ar
  41   22   23 ar
  42   22   46 1
  43   23   24 ar
  44   23   47 1
  45   24   25 ar
  46   24   28 1
  47   25   26 ar
  48   25   48 1
  49   26   30 1
  50   28   29 1
  51   29   49 1
  52   29   50 1
  53   29   51 1
  54   30   31 1
  55   31   52 1
  56   31   53 1
  57   31   54 1

#	End of record

