#	Name: ASD03430749
#	Creating user name:	WinNT
#	Creation time:	15. 06. 2019 20:41

#	Modifying user name:	WinNT
#	Modification time:	15. 06. 2019 20:41

#	Program:	/corina/corina34_cracker 3.40 0067  02.08.2006

@<TRIPOS>MOLECULE
ASD03430749
  34   38    0    0    0
SMALL
NO_CHARGES


@<TRIPOS>ATOM
   1 C1            -0.0166     1.3733     0.0096 C.ar    
   2 C2             0.0021    -0.0041     0.0020 C.ar    
   3 C3             1.2043    -0.6794    -0.0047 C.ar    
   4 C4             2.4067     0.0231     0.0055 C.ar    
   5 C5             2.3790     1.4125     0.0037 C.ar    
   6 C6             1.1696     2.0974     0.0022 C.ar    
   7 O7             3.4728    -0.8265     0.0290 O.3     
   8 C8             1.5602    -2.1410    -0.0350 C.3     
   9 C9             3.0497    -2.1327    -0.4065 C.3     
  10 C10            0.4357    -3.8629     1.0098 C.ar    
  11 C11            1.3156    -2.8178     1.2808 C.ar    
  12 C12            0.7410    -2.9061    -1.0345 C.2     
  13 N13            0.1198    -3.8877    -0.3507 N.am    
  14 O14            0.6547    -2.6840    -2.2237 O.2     
  15 C15            1.7683    -2.5981     2.5634 C.ar    
  16 C16            1.3487    -3.4190     3.5971 C.ar    
  17 C17            0.4754    -4.4589     3.3384 C.ar    
  18 C18            0.0192    -4.6825     2.0556 C.ar    
  19 C19           -1.1518     2.3779     0.0360 C.3     
  20 C20           -0.4176     3.6803     0.4336 C.3     
  21 O21            0.9262     3.4374    -0.0160 O.3     
  22 Cl22           2.8657    -1.2917     2.8840 Cl      
  23 H23           -0.9263    -0.5559     0.0017 H       
  24 H24            3.3065     1.9657     0.0039 H       
  25 H25            3.1808    -2.2432    -1.4829 H       
  26 H26            3.5872    -2.9132     0.1321 H       
  27 H27           -0.4768    -4.5361    -0.7563 H       
  28 H28            1.7033    -3.2473     4.6027 H       
  29 H29            0.1484    -5.0991     4.1443 H       
  30 H30           -0.6638    -5.4964     1.8618 H       
  31 H31           -1.6098     2.4740    -0.9484 H       
  32 H32           -1.8954     2.1058     0.7851 H       
  33 H33           -0.8480     4.5390    -0.0816 H       
  34 H34           -0.4434     3.8239     1.5138 H       
@<TRIPOS>BOND
   1    1    2 ar
   2    1    6 ar
   3    1   19 1
   4    2    3 ar
   5    2   23 1
   6    3    4 ar
   7    3    8 1
   8    4    5 ar
   9    4    7 1
  10    5    6 ar
  11    5   24 1
  12    6   21 1
  13    7    9 1
  14    8    9 1
  15    8   11 1
  16    8   12 1
  17    9   25 1
  18    9   26 1
  19   10   11 ar
  20   10   13 1
  21   10   18 ar
  22   11   15 ar
  23   12   13 am
  24   12   14 2
  25   13   27 1
  26   15   16 ar
  27   15   22 1
  28   16   17 ar
  29   16   28 1
  30   17   18 ar
  31   17   29 1
  32   18   30 1
  33   19   20 1
  34   19   31 1
  35   19   32 1
  36   20   21 1
  37   20   33 1
  38   20   34 1

#	End of record

