#	Name: ASD08150027
#	Creating user name:	WinNT
#	Creation time:	15. 06. 2019 21:15

#	Modifying user name:	WinNT
#	Modification time:	15. 06. 2019 21:15

#	Program:	/corina/corina34_cracker 3.40 0067  02.08.2006

@<TRIPOS>MOLECULE
ASD08150027
  57   60    0    0    0
SMALL
NO_CHARGES


@<TRIPOS>ATOM
   1 N1            -0.0104     1.2950     0.1025 N.2     
   2 C2             0.0047    -0.0031     0.0812 C.2     
   3 N3             1.1442    -0.7356    -0.0219 N.am    
   4 C4             2.3495    -0.1261    -0.1094 C.2     
   5 C5             2.3676     1.3441    -0.0880 C.ar    
   6 C6             3.5553     2.0678    -0.1728 C.ar    
   7 C7             3.5143     3.4446    -0.1486 C.ar    
   8 C8             2.3019     4.1134    -0.0402 C.ar    
   9 C9             1.1174     3.4171     0.0452 C.ar    
  10 C10            1.1328     2.0209     0.0218 C.ar    
  11 O11            3.3784    -0.7699    -0.2017 O.2     
  12 C12           -1.3093    -0.7349     0.1760 C.3     
  13 S13           -2.6460     0.4569     0.4389 S.3     
  14 N14           -5.8620     1.0851     0.8789 N.2     
  15 C15           -7.1510     0.9798     1.0246 C.2     
  16 N16           -7.5216    -0.3304     0.9572 N.pl3   
  17 C17           -6.3834    -1.0699     0.7574 C.ar    
  18 N18           -6.1184    -2.3646     0.6145 N.ar    
  19 C19           -4.8829    -2.7805     0.4303 C.ar    
  20 N20           -3.8565    -1.9519     0.3773 N.ar    
  21 C21           -4.0237    -0.6393     0.5101 C.ar    
  22 C22           -5.3253    -0.1469     0.7092 C.ar    
  23 N23            1.0729    -2.0996    -0.0369 N.3     
  24 C24            1.7464    -2.6751     1.1357 C.3     
  25 C25            1.5758    -4.1960     1.1232 C.3     
  26 N26            2.1367    -4.7390    -0.1219 N.3     
  27 C27            1.4633    -4.1636    -1.2944 C.3     
  28 C28            1.6338    -2.6426    -1.2819 C.3     
  29 C29            2.0600    -6.2059    -0.1380 C.3     
  30 H30            4.5011     1.5532    -0.2564 H       
  31 H31            4.4329     4.0088    -0.2141 H       
  32 H32            2.2882     5.1932    -0.0224 H       
  33 H33            0.1807     3.9480     0.1291 H       
  34 H34           -1.4877    -1.2827    -0.7492 H       
  35 H35           -1.2763    -1.4340     1.0116 H       
  36 H36           -7.8272     1.8080     1.1766 H       
  37 H37           -8.4244    -0.6763     1.0360 H       
  38 H38           -4.7023    -3.8394     0.3182 H       
  39 H39            2.8075    -2.4279     1.1034 H       
  40 H40            1.3051    -2.2671     2.0451 H       
  41 H41            2.0991    -4.6276     1.9764 H       
  42 H42            0.5160    -4.4436     1.1830 H       
  43 H43            1.9045    -4.5715    -2.2038 H       
  44 H44            0.4022    -4.4108    -1.2621 H       
  45 H45            1.1105    -2.2110    -2.1352 H       
  46 H46            2.6936    -2.3950    -1.3417 H       
  47 H47            1.0181    -6.5162    -0.0595 H       
  48 H48            2.4818    -6.5816    -1.0703 H       
  49 H49            2.6234    -6.6085     0.7039 H       
  50 C50           10.6725    12.0727     7.5776 C.2     
  51 C51           10.6930    10.5658     7.5693 C.3     
  52 O52           11.7106    12.6910     7.5710 O.2     
  53 O53            9.5011    12.7279     7.5867 O.3     
  54 H54           10.7077    10.1970     8.5949 H       
  55 H55            9.8031    10.1932     7.0619 H       
  56 H56           11.5828    10.2174     7.0451 H       
  57 H57            9.5386    13.6942     7.5918 H       
@<TRIPOS>BOND
   1    1    2 2
   2    1   10 1
   3    2    3 1
   4    2   12 1
   5    3    4 am
   6    3   23 1
   7    4    5 1
   8    4   11 2
   9    5    6 ar
  10    5   10 ar
  11    6    7 ar
  12    6   30 1
  13    7    8 ar
  14    7   31 1
  15    8    9 ar
  16    8   32 1
  17    9   10 ar
  18    9   33 1
  19   12   13 1
  20   12   34 1
  21   12   35 1
  22   13   21 1
  23   14   15 2
  24   14   22 1
  25   15   16 1
  26   15   36 1
  27   16   17 1
  28   16   37 1
  29   17   18 ar
  30   17   22 ar
  31   18   19 ar
  32   19   20 ar
  33   19   38 1
  34   20   21 ar
  35   21   22 ar
  36   23   24 1
  37   23   28 1
  38   24   25 1
  39   24   39 1
  40   24   40 1
  41   25   26 1
  42   25   41 1
  43   25   42 1
  44   26   27 1
  45   26   29 1
  46   27   28 1
  47   27   43 1
  48   27   44 1
  49   28   45 1
  50   28   46 1
  51   29   47 1
  52   29   48 1
  53   29   49 1
  54   50   51 1
  55   50   52 2
  56   50   53 1
  57   51   54 1
  58   51   55 1
  59   51   56 1
  60   53   57 1

#	End of record

