#	Name: ASD01915443
#	Creating user name:	WinNT
#	Creation time:	15. 06. 2019 20:05

#	Modifying user name:	WinNT
#	Modification time:	15. 06. 2019 20:05

#	Program:	/corina/corina34_cracker 3.40 0067  02.08.2006

@<TRIPOS>MOLECULE
ASD01915443
  44   47    0    0    0
SMALL
NO_CHARGES


@<TRIPOS>ATOM
   1 N1            -0.0169     1.3953     0.0097 N.pl3   
   2 N2             0.0021    -0.0041     0.0020 N.2     
   3 C3             1.2331    -0.4277    -0.0120 C.2     
   4 C4             2.0935     0.6930    -0.0142 C.ar    
   5 C5             1.2773     1.8420    -0.0002 C.ar    
   6 N6             1.8173     3.0544     0.0003 N.ar    
   7 C7             3.4958     0.8424    -0.0264 C.ar    
   8 C8             4.0178     2.1478    -0.0240 C.ar    
   9 C9             3.1254     3.2401    -0.0121 C.ar    
  10 C10            5.4332     2.3651    -0.0356 C.1     
  11 N11            6.5560     2.5376    -0.0448 N.1     
  12 C12            3.6643     4.6197    -0.0107 C.ar    
  13 C13            2.9917     5.6348    -0.6908 C.ar    
  14 C14            3.4988     6.9181    -0.6859 C.ar    
  15 C15            4.6720     7.1987    -0.0086 C.ar    
  16 C16            5.3439     6.1960     0.6674 C.ar    
  17 C17            4.8433     4.9102     0.6754 C.ar    
  18 C18            4.3889    -0.3367    -0.0408 C.ar    
  19 C19            5.2085    -0.5817    -1.1435 C.ar    
  20 C20            6.0395    -1.6829    -1.1504 C.ar    
  21 C21            6.0612    -2.5438    -0.0674 C.ar    
  22 C22            5.2508    -2.3069     1.0287 C.ar    
  23 C23            4.4198    -1.2058     1.0508 C.ar    
  24 C24            1.6673    -1.8708    -0.0239 C.3     
  25 C25            1.1350    -2.5738     1.2264 C.3     
  26 C26            1.1122    -2.5601    -1.2719 C.3     
  27 H27           -0.8106     1.9529     0.0167 H       
  28 H28            2.0761     5.4168    -1.2204 H       
  29 H29            2.9789     7.7050    -1.2121 H       
  30 H30            5.0651     8.2046    -0.0080 H       
  31 H31            6.2598     6.4210     1.1937 H       
  32 H32            5.3661     4.1292     1.2075 H       
  33 H33            5.1920     0.0891    -1.9898 H       
  34 H34            6.6742    -1.8736    -2.0031 H       
  35 H35            6.7132    -3.4047    -0.0779 H       
  36 H36            5.2718    -2.9830     1.8706 H       
  37 H37            3.7910    -1.0195     1.9089 H       
  38 H38            2.7560    -1.9226    -0.0341 H       
  39 H39            1.5305    -2.0828     2.1155 H       
  40 H40            0.0463    -2.5221     1.2366 H       
  41 H41            1.4491    -3.6176     1.2178 H       
  42 H42            1.4914    -2.0592    -2.1627 H       
  43 H43            1.4262    -3.6039    -1.2805 H       
  44 H44            0.0235    -2.5083    -1.2617 H       
@<TRIPOS>BOND
   1    1    2 1
   2    1    5 1
   3    1   27 1
   4    2    3 2
   5    3    4 1
   6    3   24 1
   7    4    7 ar
   8    4    5 ar
   9    5    6 ar
  10    6    9 ar
  11    7    8 ar
  12    7   18 1
  13    8    9 ar
  14    8   10 1
  15    9   12 1
  16   10   11 3
  17   12   13 ar
  18   12   17 ar
  19   13   14 ar
  20   13   28 1
  21   14   15 ar
  22   14   29 1
  23   15   16 ar
  24   15   30 1
  25   16   17 ar
  26   16   31 1
  27   17   32 1
  28   18   19 ar
  29   18   23 ar
  30   19   20 ar
  31   19   33 1
  32   20   21 ar
  33   20   34 1
  34   21   22 ar
  35   21   35 1
  36   22   23 ar
  37   22   36 1
  38   23   37 1
  39   24   25 1
  40   24   26 1
  41   24   38 1
  42   25   39 1
  43   25   40 1
  44   25   41 1
  45   26   42 1
  46   26   43 1
  47   26   44 1

#	End of record

