#	Name: ASD03540305
#	Creating user name:	WinNT
#	Creation time:	15. 06. 2019 20:43

#	Modifying user name:	WinNT
#	Modification time:	15. 06. 2019 20:43

#	Program:	/corina/corina34_cracker 3.40 0067  02.08.2006

@<TRIPOS>MOLECULE
ASD03540305
  56   59    0    0    0
SMALL
NO_CHARGES


@<TRIPOS>ATOM
   1 C1            -0.0167     1.3831     0.0096 C.ar    
   2 C2             0.0021    -0.0041     0.0020 C.ar    
   3 C3             1.2141    -0.6789    -0.0132 C.ar    
   4 C4             2.3989     0.0314    -0.0207 C.ar    
   5 C5             2.3774     1.4139    -0.0126 C.ar    
   6 C6             1.1708     2.0889     0.0021 C.ar    
   7 O7            -1.1648    -0.7006     0.0099 O.3     
   8 C8            -1.0693    -2.1264     0.0013 C.3     
   9 C9             3.6714     2.1863    -0.0198 C.3     
  10 N10            4.0783     2.4445    -1.4033 N.am    
  11 C11            5.2138     3.1251    -1.6559 C.2     
  12 C12            5.6207     3.3833    -3.0392 C.2     
  13 O13            5.9013     3.5253    -0.7345 O.2     
  14 S14            4.7304     2.8683    -4.4606 S.3     
  15 C15            5.8815     3.5666    -5.5121 C.2     
  16 C16            6.9018     4.1669    -4.7842 C.2     
  17 C17            6.7266     4.0536    -3.4031 C.2     
  18 N18            5.9262     3.6092    -6.8943 N.am    
  19 C19            6.9317     4.2161    -7.5410 C.2     
  20 N20            7.9433     4.8120    -6.8894 N.am    
  21 C21            7.9889     4.8237    -5.5443 C.2     
  22 O22            8.9095     5.3662    -4.9620 O.2     
  23 O23            6.9277     4.2268    -8.7567 O.2     
  24 C24            4.8533     2.9781    -7.6669 C.3     
  25 C25            9.0130     5.4584    -7.6536 C.3     
  26 C26            8.6466     6.9223    -7.9058 C.3     
  27 O27            8.5956     7.6219    -6.6608 O.3     
  28 C28            8.2813     8.9433    -6.7080 C.ar    
  29 C29            8.2141     9.6835    -5.5366 C.ar    
  30 C30            7.8944    11.0265    -5.5867 C.ar    
  31 C31            7.6410    11.6333    -6.8039 C.ar    
  32 C32            7.7074    10.8969    -7.9732 C.ar    
  33 C33            8.0328     9.5551    -7.9280 C.ar    
  34 Br34           7.2024    13.4715    -6.8694 Br      
  35 H35           -0.9590     1.9108     0.0170 H       
  36 H36            1.2314    -1.7588    -0.0188 H       
  37 H37            3.3426    -0.4935    -0.0325 H       
  38 H38            1.1567     3.1688     0.0084 H       
  39 H39           -2.0703    -2.5577     0.0089 H       
  40 H40           -0.5412    -2.4498    -0.8957 H       
  41 H41           -0.5235    -2.4593     0.8841 H       
  42 H42            3.5318     3.1338     0.5007 H       
  43 H43            4.4441     1.6055     0.4838 H       
  44 H44            3.5304     2.1257    -2.1375 H       
  45 H45            7.4251     4.4632    -2.6885 H       
  46 H46            4.0608     3.7041    -7.8483 H       
  47 H47            5.2497     2.6273    -8.6198 H       
  48 H48            4.4513     2.1334    -7.1075 H       
  49 H49            9.9439     5.4089    -7.0889 H       
  50 H50            9.1389     4.9459    -8.6074 H       
  51 H51            9.3986     7.3795    -8.5489 H       
  52 H52            7.6725     6.9745    -8.3921 H       
  53 H53            8.4112     9.2101    -4.5862 H       
  54 H54            7.8420    11.6031    -4.6751 H       
  55 H55            7.5092    11.3724    -8.9224 H       
  56 H56            8.0846     8.9806    -8.8411 H       
@<TRIPOS>BOND
   1    1    2 ar
   2    1    6 ar
   3    1   35 1
   4    2    3 ar
   5    2    7 1
   6    3    4 ar
   7    3   36 1
   8    4    5 ar
   9    4   37 1
  10    5    6 ar
  11    5    9 1
  12    6   38 1
  13    7    8 1
  14    8   39 1
  15    8   40 1
  16    8   41 1
  17    9   10 1
  18    9   42 1
  19    9   43 1
  20   10   11 am
  21   10   44 1
  22   11   12 1
  23   11   13 2
  24   12   14 1
  25   12   17 2
  26   14   15 1
  27   15   16 2
  28   15   18 1
  29   16   17 1
  30   16   21 1
  31   17   45 1
  32   18   19 am
  33   18   24 1
  34   19   20 am
  35   19   23 2
  36   20   21 am
  37   20   25 1
  38   21   22 2
  39   24   46 1
  40   24   47 1
  41   24   48 1
  42   25   26 1
  43   25   49 1
  44   25   50 1
  45   26   27 1
  46   26   51 1
  47   26   52 1
  48   27   28 1
  49   28   29 ar
  50   28   33 ar
  51   29   30 ar
  52   29   53 1
  53   30   31 ar
  54   30   54 1
  55   31   32 ar
  56   31   34 1
  57   32   33 ar
  58   32   55 1
  59   33   56 1

#	End of record

