#	Name: ASD04880195
#	Creating user name:	WinNT
#	Creation time:	15. 06. 2019 20:53

#	Modifying user name:	WinNT
#	Modification time:	15. 06. 2019 20:53

#	Program:	/corina/corina34_cracker 3.40 0067  02.08.2006

@<TRIPOS>MOLECULE
ASD04880195
  24   25    0    0    0
SMALL
NO_CHARGES


@<TRIPOS>ATOM
   1 C1            -0.0575     1.4919    -0.3732 C.3     
   2 C2            -0.0176    -0.0368    -0.1925 C.3     
   3 N3             1.4142    -0.3660    -0.1669 N.am    
   4 N4             2.1588     0.8027    -0.3122 N.am    
   5 C5             1.3972     1.8991    -0.4350 C.2     
   6 O6             1.8079     3.0318    -0.5733 O.2     
   7 C7             1.9268    -1.6043    -0.0246 C.2     
   8 O8             1.1912    -2.5436     0.2080 O.2     
   9 C9             3.3840    -1.8202    -0.1513 C.ar    
  10 C10            3.9958    -2.8814     0.5174 C.ar    
  11 C11            5.3560    -3.0788     0.3955 C.ar    
  12 C12            6.1144    -2.2278    -0.3876 C.ar    
  13 C13            5.5143    -1.1717    -1.0549 C.ar    
  14 C14            4.1523    -0.9669    -0.9448 C.ar    
  15 F15            6.2614    -0.3440    -1.8178 F       
  16 H16           -0.5660     1.7528    -1.3014 H       
  17 H17           -0.5495     1.9635     0.4775 H       
  18 H18           -0.4905    -0.3214     0.7474 H       
  19 H19           -0.5070    -0.5320    -1.0311 H       
  20 H20            3.1286     0.8211    -0.3234 H       
  21 H21            3.4055    -3.5470     1.1298 H       
  22 H22            5.8296    -3.8998     0.9132 H       
  23 H23            7.1787    -2.3868    -0.4793 H       
  24 H24            3.6847    -0.1439    -1.4647 H       
@<TRIPOS>BOND
   1    1    2 1
   2    1    5 1
   3    1   16 1
   4    1   17 1
   5    2    3 1
   6    2   18 1
   7    2   19 1
   8    3    4 1
   9    3    7 am
  10    4    5 am
  11    4   20 1
  12    5    6 2
  13    7    8 2
  14    7    9 1
  15    9   10 ar
  16    9   14 ar
  17   10   11 ar
  18   10   21 1
  19   11   12 ar
  20   11   22 1
  21   12   13 ar
  22   12   23 1
  23   13   14 ar
  24   13   15 1
  25   14   24 1

#	End of record

