#	Name: ASD08830109
#	Creating user name:	WinNT
#	Creation time:	15. 06. 2019 21:19

#	Modifying user name:	WinNT
#	Modification time:	15. 06. 2019 21:19

#	Program:	/corina/corina34_cracker 3.40 0067  02.08.2006

@<TRIPOS>MOLECULE
ASD08830109
  41   42    0    0    0
SMALL
NO_CHARGES


@<TRIPOS>ATOM
   1 C1            -0.0178     1.4607     0.0101 C.ar    
   2 C2             0.0021    -0.0041     0.0020 C.2     
   3 C3             1.3172    -0.7397    -0.0145 C.3     
   4 C4             1.0581    -2.2476    -0.0201 C.3     
   5 N5             2.3401    -2.9647    -0.0362 N.3     
   6 O6            -1.0404    -0.6250     0.0086 O.2     
   7 C7             1.1841     2.1813     0.0025 C.ar    
   8 C8             1.1630     3.5457     0.0100 C.ar    
   9 C9            -0.0485     4.2318     0.0258 C.ar    
  10 C10           -1.2486     3.5348     0.0335 C.ar    
  11 C11           -1.2435     2.1510     0.0196 C.ar    
  12 C12            2.1422    -4.4028     0.1963 C.3     
  13 C13            3.4931    -5.1184     0.1121 C.3     
  14 O14            4.3950    -4.5362     1.0571 O.3     
  15 C15            4.6112    -3.1363     0.8596 C.3     
  16 C16            3.2717    -2.4007     0.9513 C.3     
  17 O17           -2.4130     1.4645     0.0266 O.3     
  18 C18           -3.6169     2.2341     0.0486 C.3     
  19 O19           -0.0559     5.5884     0.0341 O.3     
  20 C20            1.2138     6.2441     0.0259 C.3     
  21 H21            1.8766    -0.4639    -0.9084 H       
  22 H22            1.8936    -0.4734     0.8715 H       
  23 H23            0.4987    -2.5235     0.8738 H       
  24 H24            0.4817    -2.5139    -0.9061 H       
  25 H25            2.1278     1.6564    -0.0090 H       
  26 H26            2.0918     4.0969     0.0041 H       
  27 H27           -2.1855     4.0719     0.0458 H       
  28 H28            1.7104    -4.5556     1.1854 H       
  29 H29            1.4696    -4.8048    -0.5613 H       
  30 H30            3.3596    -6.1759     0.3402 H       
  31 H31            3.8999    -5.0108    -0.8933 H       
  32 H32            5.2863    -2.7603     1.6283 H       
  33 H33            5.0505    -2.9711    -0.1242 H       
  34 H34            3.4234    -1.3412     0.7449 H       
  35 H35            2.8579    -2.5214     1.9525 H       
  36 H36           -4.4765     1.5639     0.0521 H       
  37 H37           -3.6357     2.8538     0.9451 H       
  38 H38           -3.6568     2.8716    -0.8346 H       
  39 H39            1.0651     7.3239     0.0339 H       
  40 H40            1.7809     5.9489     0.9087 H       
  41 H41            1.7638     5.9597    -0.8711 H       
@<TRIPOS>BOND
   1    1    2 1
   2    1    7 ar
   3    1   11 ar
   4    2    3 1
   5    2    6 2
   6    3    4 1
   7    3   21 1
   8    3   22 1
   9    4    5 1
  10    4   23 1
  11    4   24 1
  12    5   12 1
  13    5   16 1
  14    7    8 ar
  15    7   25 1
  16    8    9 ar
  17    8   26 1
  18    9   10 ar
  19    9   19 1
  20   10   11 ar
  21   10   27 1
  22   11   17 1
  23   12   13 1
  24   12   28 1
  25   12   29 1
  26   13   14 1
  27   13   30 1
  28   13   31 1
  29   14   15 1
  30   15   16 1
  31   15   32 1
  32   15   33 1
  33   16   34 1
  34   16   35 1
  35   17   18 1
  36   18   36 1
  37   18   37 1
  38   18   38 1
  39   19   20 1
  40   20   39 1
  41   20   40 1
  42   20   41 1

#	End of record

