#	Name: ASD01001242
#	Creating user name:	WinNT
#	Creation time:	15. 06. 2019 18:55

#	Modifying user name:	WinNT
#	Modification time:	15. 06. 2019 18:55

#	Program:	/corina/corina34_cracker 3.40 0067  02.08.2006

@<TRIPOS>MOLECULE
ASD01001242
  72   74    0    0    0
SMALL
NO_CHARGES


@<TRIPOS>ATOM
   1 C1            -0.4683     1.4959     1.6891 C.ar    
   2 C2            -0.4529     0.1112     1.7732 C.ar    
   3 C3            -1.4901    -0.6240     1.2328 C.ar    
   4 C4            -2.5430     0.0190     0.6086 C.ar    
   5 C5            -2.5604     1.3989     0.5230 C.ar    
   6 C6            -1.5287     2.1390     1.0673 C.ar    
   7 C7            -3.6731    -0.7855     0.0199 C.3     
   8 C8            -4.9419     0.0267     0.0596 C.ar    
   9 C9            -3.3475    -1.1390    -1.4084 C.ar    
  10 C10           -5.7269     0.1382    -1.0727 C.ar    
  11 C11           -6.8907     0.8833    -1.0363 C.ar    
  12 C12           -7.2696     1.5166     0.1326 C.ar    
  13 C13           -6.4850     1.4044     1.2652 C.ar    
  14 C14           -5.3235     0.6557     1.2300 C.ar    
  15 C15           -3.2306    -0.1412    -2.3579 C.ar    
  16 C16           -2.9319    -0.4654    -3.6681 C.ar    
  17 C17           -2.7496    -1.7874    -4.0286 C.ar    
  18 C18           -2.8656    -2.7851    -3.0789 C.ar    
  19 C19           -3.1600    -2.4606    -1.7679 C.ar    
  20 S20           -3.8984    -2.3063     0.9829 S.3     
  21 C21           -5.3950    -3.0306     0.2576 C.3     
  22 C22           -5.7943    -4.2767     1.0505 C.3     
  23 N23           -4.7025    -5.2583     1.0026 N.3     
  24 C24           -7.0377    -4.8784     0.4480 C.2     
  25 N25           -8.2460    -4.3525     0.7306 N.am    
  26 O26           -6.9510    -5.8360    -0.2913 O.2     
  27 O27            0.5509     2.2214     2.2199 O.3     
  28 C28            0.4686     3.6427     2.0963 C.3     
  29 C29           -9.4547    -4.9375     0.1449 C.3     
  30 C30          -10.6816    -4.1586     0.6232 C.3     
  31 O31          -10.6249    -2.8232     0.1179 O.3     
  32 C32          -11.7305    -2.0064     0.5085 C.3     
  33 C33          -11.5655    -0.6064    -0.0860 C.3     
  34 N34          -11.6385    -0.6845    -1.5471 N.am    
  35 C35          -11.5180     0.4344    -2.2886 C.2     
  36 O36          -11.3491     1.5060    -1.7464 O.2     
  37 C37          -11.5931     0.3540    -3.7916 C.3     
  38 H38            0.3695    -0.3915     2.2604 H       
  39 H39           -1.4784    -1.7020     1.2977 H       
  40 H40           -3.3838     1.8988     0.0346 H       
  41 H41           -1.5428     3.2168     1.0002 H       
  42 H42           -5.4309    -0.3566    -1.9859 H       
  43 H43           -7.5037     0.9710    -1.9211 H       
  44 H44           -8.1785     2.0993     0.1609 H       
  45 H45           -6.7809     1.8995     2.1783 H       
  46 H46           -4.7105     0.5680     2.1148 H       
  47 H47           -3.3730     0.8917    -2.0762 H       
  48 H48           -2.8413     0.3141    -4.4101 H       
  49 H49           -2.5170    -2.0407    -5.0524 H       
  50 H50           -2.7235    -3.8180    -3.3607 H       
  51 H51           -3.2506    -3.2401    -1.0259 H       
  52 H52           -6.2051    -2.3022     0.2931 H       
  53 H53           -5.1997    -3.3065    -0.7787 H       
  54 H54           -5.9897    -4.0008     2.0868 H       
  55 H55           -4.5023    -5.5303     0.0518 H       
  56 H56           -3.8759    -4.9022     1.4586 H       
  57 H57           -8.3153    -3.5867     1.3219 H       
  58 H58            1.3428     4.0990     2.5606 H       
  59 H59            0.4342     3.9143     1.0413 H       
  60 H60           -0.4340     3.9988     2.5928 H       
  61 H61           -9.3930    -4.8864    -0.9422 H       
  62 H62           -9.5415    -5.9787     0.4553 H       
  63 H63          -11.5861    -4.6465     0.2598 H       
  64 H64          -10.6945    -4.1346     1.7129 H       
  65 H65          -12.6567    -2.4496     0.1428 H       
  66 H66          -11.7652    -1.9377     1.5958 H       
  67 H67          -12.3606     0.0413     0.2834 H       
  68 H68          -10.5985    -0.1984     0.2082 H       
  69 H69          -11.7736    -1.5416    -1.9808 H       
  70 H70          -11.7469    -0.6822    -4.0928 H       
  71 H71          -12.4244     0.9629    -4.1469 H       
  72 H72          -10.6623     0.7232    -4.2222 H       
@<TRIPOS>BOND
   1    1    2 ar
   2    1   27 1
   3    1    6 ar
   4    2    3 ar
   5    2   38 1
   6    3    4 ar
   7    3   39 1
   8    4    5 ar
   9    4    7 1
  10    5    6 ar
  11    5   40 1
  12    6   41 1
  13    7    8 1
  14    7    9 1
  15    7   20 1
  16    8   10 ar
  17    8   14 ar
  18    9   15 ar
  19    9   19 ar
  20   10   11 ar
  21   10   42 1
  22   11   12 ar
  23   11   43 1
  24   12   13 ar
  25   12   44 1
  26   13   14 ar
  27   13   45 1
  28   14   46 1
  29   15   16 ar
  30   15   47 1
  31   16   17 ar
  32   16   48 1
  33   17   18 ar
  34   17   49 1
  35   18   19 ar
  36   18   50 1
  37   19   51 1
  38   20   21 1
  39   21   22 1
  40   21   52 1
  41   21   53 1
  42   22   23 1
  43   22   24 1
  44   22   54 1
  45   23   55 1
  46   23   56 1
  47   24   25 am
  48   24   26 2
  49   25   29 1
  50   25   57 1
  51   27   28 1
  52   28   58 1
  53   28   59 1
  54   28   60 1
  55   29   30 1
  56   29   61 1
  57   29   62 1
  58   30   31 1
  59   30   63 1
  60   30   64 1
  61   31   32 1
  62   32   33 1
  63   32   65 1
  64   32   66 1
  65   33   34 1
  66   33   67 1
  67   33   68 1
  68   34   35 am
  69   34   69 1
  70   35   36 2
  71   35   37 1
  72   37   70 1
  73   37   71 1
  74   37   72 1

#	End of record

