#	Name: ASD03330029
#	Creating user name:	WinNT
#	Creation time:	15. 06. 2019 20:36

#	Modifying user name:	WinNT
#	Modification time:	15. 06. 2019 20:36

#	Program:	/corina/corina34_cracker 3.40 0067  02.08.2006

@<TRIPOS>MOLECULE
ASD03330029
  36   37    0    0    0
SMALL
NO_CHARGES


@<TRIPOS>ATOM
   1 N1            -0.0258     1.3572     0.0050 N.pl3   
   2 C2            -0.0053    -0.0067     0.0060 C.2     
   3 C3             1.3134    -0.4427    -0.0107 C.2     
   4 C4             2.1459     0.7693    -0.0227 C.ar    
   5 C5             3.5230     0.9941    -0.0408 C.ar    
   6 C6             4.0022     2.2744    -0.0482 C.ar    
   7 C7             3.1269     3.3542    -0.0374 C.ar    
   8 C8             1.7653     3.1544    -0.0191 C.ar    
   9 C9             1.2545     1.8575    -0.0121 C.ar    
  10 C10           -1.1947    -0.8800     0.0223 C.2     
  11 O11           -1.0655    -2.0841    -0.0733 O.2     
  12 O12           -2.4244    -0.3417     0.1432 O.3     
  13 Cl13           5.7154     2.5537    -0.0707 Cl      
  14 C14            1.7815    -1.8327    -0.0155 C.2     
  15 O15            1.8775    -2.4368    -1.0630 O.2     
  16 C16            2.1432    -2.5104     1.2811 C.3     
  17 C17            2.4726    -3.9804     1.0136 C.3     
  18 C18            2.8398    -4.6685     2.3299 C.3     
  19 C19           -3.5484    -1.2609     0.1518 C.3     
  20 C20           -4.8513    -0.4718     0.2958 C.3     
  21 H21           -0.8309     1.8981     0.0112 H       
  22 H22            4.2081     0.1593    -0.0485 H       
  23 H23            3.5194     4.3603    -0.0431 H       
  24 H24            1.0942     4.0006    -0.0101 H       
  25 H25            3.0111    -2.0174     1.7189 H       
  26 H26            1.3022    -2.4464     1.9715 H       
  27 H27            1.6047    -4.4734     0.5757 H       
  28 H28            3.3136    -4.0445     0.3231 H       
  29 H29            3.7078    -4.1755     2.7678 H       
  30 H30            1.9988    -4.6044     3.0203 H       
  31 H31            3.0745    -5.7157     2.1393 H       
  32 H32           -3.5653    -1.8229    -0.7819 H       
  33 H33           -3.4471    -1.9509     0.9895 H       
  34 H34           -4.8344     0.0902     1.2296 H       
  35 H35           -4.9526     0.2182    -0.5419 H       
  36 H36           -5.6951    -1.1618     0.3023 H       
@<TRIPOS>BOND
   1    1    2 1
   2    1    9 1
   3    1   21 1
   4    2    3 2
   5    2   10 1
   6    3    4 1
   7    3   14 1
   8    4    5 ar
   9    4    9 ar
  10    5    6 ar
  11    5   22 1
  12    6    7 ar
  13    6   13 1
  14    7    8 ar
  15    7   23 1
  16    8    9 ar
  17    8   24 1
  18   10   11 2
  19   10   12 1
  20   12   19 1
  21   14   15 2
  22   14   16 1
  23   16   17 1
  24   16   25 1
  25   16   26 1
  26   17   18 1
  27   17   27 1
  28   17   28 1
  29   18   29 1
  30   18   30 1
  31   18   31 1
  32   19   20 1
  33   19   32 1
  34   19   33 1
  35   20   34 1
  36   20   35 1
  37   20   36 1

#	End of record

