#	Name: ASD04880391
#	Creating user name:	WinNT
#	Creation time:	15. 06. 2019 20:53

#	Modifying user name:	WinNT
#	Modification time:	15. 06. 2019 20:53

#	Program:	/corina/corina34_cracker 3.40 0067  02.08.2006

@<TRIPOS>MOLECULE
ASD04880391
  35   37    0    0    0
SMALL
NO_CHARGES


@<TRIPOS>ATOM
   1 C1            -0.0181     1.2961    -0.3997 C.ar    
   2 C2             0.0224    -0.0861    -0.4256 C.ar    
   3 C3             1.2315    -0.7462    -0.3468 C.ar    
   4 C4             2.4169    -0.0167    -0.2411 C.ar    
   5 C5             2.3714     1.3783    -0.2158 C.ar    
   6 C6             1.1544     2.0276    -0.2950 C.ar    
   7 C7             3.7148    -0.7185    -0.1559 C.2     
   8 O8             3.7455    -1.9294    -0.0498 O.2     
   9 N9             4.8645    -0.0162    -0.1958 N.am    
  10 C10            6.2139    -0.5720    -0.0074 C.3     
  11 N11            4.9697     1.3537    -0.4281 N.2     
  12 C12            6.1797     1.7978    -0.4184 C.2     
  13 C13            7.1345     0.6559    -0.1528 C.3     
  14 F14            1.1074     3.3776    -0.2712 F       
  15 C15            6.5721     3.2008    -0.6366 C.ar    
  16 C16            7.3335     3.5542    -1.7613 C.ar    
  17 C17            7.6967     4.8790    -1.9564 C.ar    
  18 C18            7.3101     5.8440    -1.0466 C.ar    
  19 C19            6.5590     5.4990     0.0646 C.ar    
  20 C20            6.1836     4.1883     0.2716 C.ar    
  21 N21            7.7233     2.5793    -2.6773 N.pl3   
  22 H22           -0.9670     1.8076    -0.4659 H       
  23 H23           -0.8949    -0.6504    -0.5073 H       
  24 H24            1.2607    -1.8256    -0.3664 H       
  25 H25            3.2850     1.9484    -0.1342 H       
  26 H26            6.3130    -1.0102     0.9857 H       
  27 H27            6.4354    -1.3108    -0.7776 H       
  28 H28            7.6905     0.8289     0.7687 H       
  29 H29            7.8164     0.5243    -0.9929 H       
  30 H30            8.2826     5.1560    -2.8203 H       
  31 H31            7.5956     6.8738    -1.2028 H       
  32 H32            6.2621     6.2608     0.7701 H       
  33 H33            5.5976     3.9244     1.1395 H       
  34 H34            7.4058     1.6679    -2.5801 H       
  35 H35            8.3122     2.8119    -3.4121 H       
@<TRIPOS>BOND
   1    1    2 ar
   2    1    6 ar
   3    1   22 1
   4    2    3 ar
   5    2   23 1
   6    3    4 ar
   7    3   24 1
   8    4    5 ar
   9    4    7 1
  10    5    6 ar
  11    5   25 1
  12    6   14 1
  13    7    8 2
  14    7    9 am
  15    9   10 1
  16    9   11 1
  17   10   13 1
  18   10   26 1
  19   10   27 1
  20   11   12 2
  21   12   13 1
  22   12   15 1
  23   13   28 1
  24   13   29 1
  25   15   16 ar
  26   15   20 ar
  27   16   17 ar
  28   16   21 1
  29   17   18 ar
  30   17   30 1
  31   18   19 ar
  32   18   31 1
  33   19   20 ar
  34   19   32 1
  35   20   33 1
  36   21   34 1
  37   21   35 1

#	End of record

