#	Name: ASD01900165
#	Creating user name:	WinNT
#	Creation time:	15. 06. 2019 19:51

#	Modifying user name:	WinNT
#	Modification time:	15. 06. 2019 19:51

#	Program:	/corina/corina34_cracker 3.40 0067  02.08.2006

@<TRIPOS>MOLECULE
ASD01900165
  36   38    0    0    0
SMALL
NO_CHARGES


@<TRIPOS>ATOM
   1 C1             0.0377     1.3061     0.1277 C.ar    
   2 C2            -1.1239     1.6619    -0.5384 C.ar    
   3 C3            -1.1549     2.8398    -1.2688 C.ar    
   4 C4            -0.0135     3.6248    -1.3061 C.ar    
   5 C5             1.1194     3.2050    -0.6120 C.ar    
   6 N6             1.1073     2.0698     0.0756 N.ar    
   7 C7             2.3476     4.0327    -0.6418 C.2     
   8 N8             3.4466     3.6319     0.0276 N.am    
   9 O9             2.3642     5.0730    -1.2698 O.2     
  10 C10            4.6364     4.3615    -0.0799 C.ar    
  11 C11            4.5950     5.7458    -0.1830 C.ar    
  12 C12            5.7694     6.4657    -0.2886 C.ar    
  13 C13            6.9916     5.8041    -0.2916 C.ar    
  14 C14            7.0319     4.4197    -0.1885 C.ar    
  15 C15            5.8585     3.7012    -0.0776 C.ar    
  16 N16            8.1824     6.5332    -0.3992 N.am    
  17 C17            9.3127     5.9218    -0.8055 C.2     
  18 O18            9.2786     4.7623    -1.1742 O.2     
  19 Cl19           5.7184     8.1961    -0.4181 Cl      
  20 C20           12.4690     8.2591    -0.6326 C.2     
  21 C21           12.8198     7.0506    -1.0878 C.2     
  22 C22           11.7908     6.1448    -1.1905 C.2     
  23 C23           10.5828     6.6530    -0.8032 C.2     
  24 S24           10.7964     8.3249    -0.3025 S.3     
  25 H25            0.0639     0.3914     0.7013 H       
  26 H26           -1.9966     1.0275    -0.4895 H       
  27 H27           -2.0482     3.1387    -1.7970 H       
  28 H28           -0.0021     4.5485    -1.8655 H       
  29 H29            3.4131     2.8380     0.5839 H       
  30 H30            3.6450     6.2594    -0.1810 H       
  31 H31            7.9817     3.9056    -0.1908 H       
  32 H32            5.8903     2.6246     0.0029 H       
  33 H33            8.1937     7.4784    -0.1812 H       
  34 H34           13.1541     9.0815    -0.4889 H       
  35 H35           13.8370     6.8050    -1.3553 H       
  36 H36           11.9239     5.1323    -1.5422 H       
@<TRIPOS>BOND
   1    1    2 ar
   2    1    6 ar
   3    1   25 1
   4    2    3 ar
   5    2   26 1
   6    3    4 ar
   7    3   27 1
   8    4    5 ar
   9    4   28 1
  10    5    6 ar
  11    5    7 1
  12    7    8 am
  13    7    9 2
  14    8   10 1
  15    8   29 1
  16   10   11 ar
  17   10   15 ar
  18   11   12 ar
  19   11   30 1
  20   12   13 ar
  21   12   19 1
  22   13   14 ar
  23   13   16 1
  24   14   15 ar
  25   14   31 1
  26   15   32 1
  27   16   17 am
  28   16   33 1
  29   17   18 2
  30   17   23 1
  31   20   21 2
  32   20   24 1
  33   20   34 1
  34   21   22 1
  35   21   35 1
  36   22   23 2
  37   22   36 1
  38   23   24 1

#	End of record

