#	Name: ASD07930035
#	Creating user name:	WinNT
#	Creation time:	15. 06. 2019 21:11

#	Modifying user name:	WinNT
#	Modification time:	15. 06. 2019 21:11

#	Program:	/corina/corina34_cracker 3.40 0067  02.08.2006

@<TRIPOS>MOLECULE
ASD07930035
  53   57    0    0    0
SMALL
NO_CHARGES


@<TRIPOS>ATOM
   1 C1            -0.0167     1.3807     0.0096 C.2     
   2 N2             0.0021    -0.0041     0.0020 N.am    
   3 N3             1.2023     2.0320     0.0015 N.pl3   
   4 C4             2.2545     1.5040    -0.8785 C.3     
   5 C5             2.4301    -0.0046    -0.6026 C.3     
   6 C6             1.1260    -0.6674    -0.3006 C.2     
   7 C7             3.6038     2.1081    -0.4355 C.3     
   8 N8             4.2432     1.1401     0.4737 N.3     
   9 C9             3.3350    -0.0129     0.6493 C.3     
  10 C10            4.5421     1.7263     1.6919 C.ar    
  11 N11            4.2401     3.0012     1.8864 N.ar    
  12 C12            4.5135     3.5928     3.0428 C.ar    
  13 C13            5.1251     2.8526     4.0545 C.ar    
  14 C14            5.4242     1.5243     3.8114 C.ar    
  15 N15            5.1182     0.9967     2.6355 N.ar    
  16 Cl16           5.5030     3.5821     5.5838 Cl      
  17 O17            4.2032     4.8977     3.2376 O.3     
  18 C18            6.0854     0.6852     4.8742 C.3     
  19 C19            1.9625     1.7955    -2.3280 C.ar    
  20 C20            0.5403     2.7377    -4.0099 C.ar    
  21 C21            1.4280     2.3295    -4.9905 C.ar    
  22 C22            2.5851     1.6601    -4.6398 C.ar    
  23 N23           -1.1378     2.0425     0.0186 N.2     
  24 C24           -1.2164    -0.7493     0.3279 C.3     
  25 O25            1.0819    -1.8787    -0.3312 O.2     
  26 C26            0.8088     2.4702    -2.6781 C.ar    
  27 C27            3.5788     5.5852     2.1516 C.3     
  28 F28           -0.5908     3.3921    -4.3527 F       
  29 C29            2.8533     1.3922    -3.3084 C.ar    
  30 F30            3.9844     0.7377    -2.9656 F       
  31 C31            5.3349    -0.5549     5.3638 C.3     
  32 C32            6.5694    -0.7098     4.4734 C.3     
  33 H33            1.3581     2.8114     0.5575 H       
  34 H34            2.9183    -0.4925    -1.4462 H       
  35 H35            4.2388     2.2739    -1.3058 H       
  36 H36            3.4343     3.0500     0.0861 H       
  37 H37            2.7352     0.1114     1.5509 H       
  38 H38            3.9056    -0.9403     0.6980 H       
  39 H39            6.6803     1.2342     5.6041 H       
  40 H40            1.2162     2.5338    -6.0296 H       
  41 H41            3.2777     1.3416    -5.4048 H       
  42 H42           -1.9825     1.5657     0.0200 H       
  43 H43           -2.0230    -0.0493     0.5458 H       
  44 H44           -1.4972    -1.3749    -0.5194 H       
  45 H45           -1.0355    -1.3781     1.1996 H       
  46 H46            0.1162     2.7887    -1.9130 H       
  47 H47            3.3847     6.6185     2.4391 H       
  48 H48            4.2376     5.5672     1.2834 H       
  49 H49            2.6377     5.0941     1.9037 H       
  50 H50            5.4363    -0.8220     6.4157 H       
  51 H51            4.3628    -0.7639     4.9172 H       
  52 H52            6.4095    -1.0207     3.4410 H       
  53 H53            7.4830    -1.0788     4.9395 H       
@<TRIPOS>BOND
   1    1    2 1
   2    1    3 1
   3    1   23 2
   4    2   24 1
   5    2    6 am
   6    3    4 1
   7    3   33 1
   8    4    7 1
   9    4   19 1
  10    4    5 1
  11    5    6 1
  12    5    9 1
  13    5   34 1
  14    6   25 2
  15    7    8 1
  16    7   35 1
  17    7   36 1
  18    8    9 1
  19    8   10 1
  20    9   37 1
  21    9   38 1
  22   10   11 ar
  23   10   15 ar
  24   11   12 ar
  25   12   13 ar
  26   12   17 1
  27   13   14 ar
  28   13   16 1
  29   14   15 ar
  30   14   18 1
  31   17   27 1
  32   18   31 1
  33   18   32 1
  34   18   39 1
  35   19   26 ar
  36   19   29 ar
  37   20   21 ar
  38   20   28 1
  39   20   26 ar
  40   21   22 ar
  41   21   40 1
  42   22   29 ar
  43   22   41 1
  44   23   42 1
  45   24   43 1
  46   24   44 1
  47   24   45 1
  48   26   46 1
  49   27   47 1
  50   27   48 1
  51   27   49 1
  52   29   30 1
  53   31   32 1
  54   31   50 1
  55   31   51 1
  56   32   52 1
  57   32   53 1

#	End of record

