#	Name: ASD02150002
#	Creating user name:	WinNT
#	Creation time:	15. 06. 2019 20:18

#	Modifying user name:	WinNT
#	Modification time:	15. 06. 2019 20:18

#	Program:	/corina/corina34_cracker 3.40 0067  02.08.2006

@<TRIPOS>MOLECULE
ASD02150002
  60   64    0    0    0
SMALL
NO_CHARGES


@<TRIPOS>ATOM
   1 N1            -0.3003     1.5359    -0.0714 N.am    
   2 C2            -0.1567     0.1305    -0.0843 C.2     
   3 C3            -1.1573    -0.6522     0.3526 C.2     
   4 C4            -2.5120    -0.2275     0.8174 C.3     
   5 S5            -2.5312     1.5025     1.3762 S.3     
   6 C6            -1.5657     2.3034     0.0518 C.3     
   7 C7            -0.7028     3.4679     0.4888 C.3     
   8 C8             0.4292     2.6417    -0.0580 C.2     
   9 C9             1.0428    -0.4536    -0.5585 C.2     
  10 O10            1.2161    -1.6542    -0.4586 O.2     
  11 O11            1.9943     0.3212    -1.1215 O.3     
  12 O12            1.5749     2.8926    -0.3683 O.2     
  13 S13           -0.8339    -2.3841     0.3802 S.3     
  14 S14           -1.1495    -1.4469     3.3491 S.3     
  15 C15           -0.8486    -2.6704     2.1187 C.2     
  16 N16           -0.6398    -3.8153     2.6916 N.2     
  17 C17           -0.6900    -3.8435     4.0163 C.2     
  18 C18           -0.9550    -2.6641     4.6084 C.2     
  19 C19            0.0029    -7.4310     4.9049 C.ar    
  20 C20           -0.1957    -6.2974     4.1453 C.ar    
  21 C21           -0.4697    -5.0873     4.7913 C.ar    
  22 C22           -0.5296    -5.0834     6.1888 C.ar    
  23 C23           -0.3179    -6.2631     6.8706 C.ar    
  24 N24           -0.0624    -7.3839     6.2222 N.ar    
  25 C25            0.1549    -8.6136     6.9883 C.3     
  26 N26           -0.6531     3.6628     1.9399 N.am    
  27 C27           -0.3767     4.8804     2.4473 C.2     
  28 O28           -0.1689     5.8167     1.7011 O.2     
  29 C29           -0.3265     5.0774     3.9145 C.2     
  30 S30            0.5041     8.7545     4.7281 S.3     
  31 N31            0.2048     7.4424     3.6908 N.2     
  32 C32           -0.0228     6.4156     4.4721 C.2     
  33 N33            0.0284     6.6197     5.7765 N.2     
  34 C34            0.3046     7.8407     6.1745 C.2     
  35 N35            0.4125     8.2950     7.4760 N.pl3   
  36 N36           -0.5492     4.0745     4.7138 N.2     
  37 O37           -0.5011     4.2629     6.1164 O.3     
  38 C38           -0.7649     3.0785     6.8712 C.3     
  39 C39           -0.6869     3.3981     8.3654 C.3     
  40 H40           -2.1183     2.4447    -0.8770 H       
  41 H41           -3.2201    -0.3424    -0.0033 H       
  42 H42           -2.8210    -0.8696     1.6422 H       
  43 H43           -0.8873     4.3894    -0.0635 H       
  44 H44            2.8068    -0.1534    -1.3445 H       
  45 H45           -1.0347    -2.4932     5.6718 H       
  46 H46            0.2106    -8.3709     4.4151 H       
  47 H47           -0.1405    -6.3432     3.0677 H       
  48 H48           -0.7382    -4.1698     6.7258 H       
  49 H49           -0.3621    -6.2701     7.9496 H       
  50 H50            1.2150    -8.7142     7.2209 H       
  51 H51           -0.4178    -8.5705     7.9148 H       
  52 H52           -0.1709    -9.4709     6.3993 H       
  53 H53           -0.8190     2.9154     2.5356 H       
  54 H54            0.6225     9.2261     7.6488 H       
  55 H55            0.2782     7.6827     8.2161 H       
  56 H56           -1.7614     2.7085     6.6303 H       
  57 H57           -0.0250     2.3174     6.6234 H       
  58 H58            0.3097     3.7680     8.6063 H       
  59 H59           -1.4267     4.1592     8.6133 H       
  60 H60           -0.8880     2.4947     8.9412 H       
@<TRIPOS>BOND
   1    1    2 1
   2    1    8 am
   3    1    6 1
   4    2    3 2
   5    2    9 1
   6    3    4 1
   7    3   13 1
   8    4    5 1
   9    4   41 1
  10    4   42 1
  11    5    6 1
  12    6   40 1
  13    6    7 1
  14    7    8 1
  15    7   26 1
  16    7   43 1
  17    8   12 2
  18    9   10 2
  19    9   11 1
  20   11   44 1
  21   13   15 1
  22   14   15 1
  23   14   18 1
  24   15   16 2
  25   16   17 1
  26   17   18 2
  27   17   21 1
  28   18   45 1
  29   19   20 ar
  30   19   24 ar
  31   19   46 1
  32   20   21 ar
  33   20   47 1
  34   21   22 ar
  35   22   23 ar
  36   22   48 1
  37   23   24 ar
  38   23   49 1
  39   24   25 1
  40   25   50 1
  41   25   51 1
  42   25   52 1
  43   26   27 am
  44   26   53 1
  45   27   28 2
  46   27   29 1
  47   29   32 1
  48   29   36 2
  49   30   31 1
  50   30   34 1
  51   31   32 2
  52   32   33 1
  53   33   34 2
  54   34   35 1
  55   35   54 1
  56   35   55 1
  57   36   37 1
  58   37   38 1
  59   38   39 1
  60   38   56 1
  61   38   57 1
  62   39   58 1
  63   39   59 1
  64   39   60 1

#	End of record

