#	Name: ASD02039359
#	Creating user name:	WinNT
#	Creation time:	15. 06. 2019 20:18

#	Modifying user name:	WinNT
#	Modification time:	15. 06. 2019 20:18

#	Program:	/corina/corina34_cracker 3.40 0067  02.08.2006

@<TRIPOS>MOLECULE
ASD02039359
  51   53    0    0    0
SMALL
NO_CHARGES


@<TRIPOS>ATOM
   1 C1            -0.1345     1.5596    -0.1872 C.ar    
   2 C2            -0.1559     0.1782    -0.0590 C.ar    
   3 C3            -1.3625    -0.4920    -0.1423 C.ar    
   4 C4            -2.5119     1.4849    -0.4579 C.ar    
   5 C5            -1.3324     2.2231    -0.3900 C.ar    
   6 C6            -3.8037     2.1808    -0.6746 C.ar    
   7 C7             1.1630     2.3213    -0.1015 C.3     
   8 N8             1.8164     2.3220    -1.4128 N.am    
   9 C9             1.4076     3.2892    -2.4343 C.3     
  10 C10            2.7936     1.4329    -1.6792 C.2     
  11 C11            3.1433     0.4029    -0.6856 C.2     
  12 C12            4.1488    -0.5129    -0.7932 C.2     
  13 N13            2.5275     0.1959     0.5064 N.2     
  14 C14            3.1089    -0.7980     1.1136 C.2     
  15 N15            4.1202    -1.2619     0.3341 N.pl3   
  16 O16            3.3866     1.4808    -2.7400 O.2     
  17 C17            5.0183    -2.3738     0.6555 C.3     
  18 C18           -3.8259     3.5539    -0.9135 C.ar    
  19 C19            2.5763     4.2262    -2.7463 C.3     
  20 C20            0.9973     2.5447    -3.7064 C.3     
  21 N21           -2.4879     0.1632    -0.3418 N.ar    
  22 C22           -4.9972     1.4625    -0.6457 C.ar    
  23 C23           -6.2000     2.1167    -0.8491 C.ar    
  24 C24           -6.2151     3.4871    -1.0815 C.ar    
  25 C25           -5.0287     4.1998    -1.1155 C.ar    
  26 O26           -7.3666     1.4189    -0.8219 O.3     
  27 F27           -7.3899     4.1241    -1.2803 F       
  28 C28           -7.2764     0.0137    -0.5783 C.3     
  29 H29            0.7612    -0.3684     0.1041 H       
  30 H30           -1.3826    -1.5673    -0.0429 H       
  31 H31           -1.3534     3.2987    -0.4846 H       
  32 H32            0.9622     3.3479     0.2049 H       
  33 H33            1.8163     1.8451     0.6297 H       
  34 H34            0.5632     3.8718    -2.0659 H       
  35 H35            4.8357    -0.6200    -1.6196 H       
  36 H36            2.8336    -1.1887     2.0820 H       
  37 H37            4.5914    -3.3050     0.2830 H       
  38 H38            5.9876    -2.2052     0.1864 H       
  39 H39            5.1441    -2.4385     1.7363 H       
  40 H40           -2.9020     4.1124    -0.9402 H       
  41 H41            3.4480     3.6372    -3.0312 H       
  42 H42            2.3015     4.8890    -3.5668 H       
  43 H43            2.8118     4.8198    -1.8630 H       
  44 H44            0.1124     1.9410    -3.5046 H       
  45 H45            0.7738     3.2654    -4.4931 H       
  46 H46            1.8132     1.8974    -4.0278 H       
  47 H47           -4.9839     0.3978    -0.4653 H       
  48 H48           -5.0448     5.2645    -1.2960 H       
  49 H49           -6.6744    -0.4524    -1.3583 H       
  50 H50           -6.8100    -0.1576     0.3919 H       
  51 H51           -8.2761    -0.4207    -0.5826 H       
@<TRIPOS>BOND
   1    1    2 ar
   2    1    7 1
   3    1    5 ar
   4    2    3 ar
   5    2   29 1
   6    3   21 ar
   7    3   30 1
   8    4    5 ar
   9    4    6 1
  10    4   21 ar
  11    5   31 1
  12    6   18 ar
  13    6   22 ar
  14    7    8 1
  15    7   32 1
  16    7   33 1
  17    8    9 1
  18    8   10 am
  19    9   20 1
  20    9   19 1
  21    9   34 1
  22   10   11 1
  23   10   16 2
  24   11   12 2
  25   11   13 1
  26   12   15 1
  27   12   35 1
  28   13   14 2
  29   14   15 1
  30   14   36 1
  31   15   17 1
  32   17   37 1
  33   17   38 1
  34   17   39 1
  35   18   25 ar
  36   18   40 1
  37   19   41 1
  38   19   42 1
  39   19   43 1
  40   20   44 1
  41   20   45 1
  42   20   46 1
  43   22   23 ar
  44   22   47 1
  45   23   24 ar
  46   23   26 1
  47   24   25 ar
  48   24   27 1
  49   25   48 1
  50   26   28 1
  51   28   49 1
  52   28   50 1
  53   28   51 1

#	End of record

