#	Name: ASD01810878
#	Creating user name:	WinNT
#	Creation time:	15. 06. 2019 19:25

#	Modifying user name:	WinNT
#	Modification time:	15. 06. 2019 19:25

#	Program:	/corina/corina34_cracker 3.40 0067  02.08.2006

@<TRIPOS>MOLECULE
ASD01810878
  62   66    0    0    0
SMALL
NO_CHARGES


@<TRIPOS>ATOM
   1 C1             4.1279    14.8178    -3.5870 C.1     
   2 C2             3.3672    13.7487    -3.0133 C.ar    
   3 C3             3.9925    12.5480    -2.6713 C.ar    
   4 C4             3.2537    11.5222    -2.1190 C.ar    
   5 C5             1.8961    11.6810    -1.9042 C.ar    
   6 C6             1.2701    12.8680    -2.2412 C.ar    
   7 C7             1.9980    13.9044    -2.7879 C.ar    
   8 N8             4.7313    15.6659    -4.0421 N.1     
   9 N9            -1.2848     9.3608    -0.3490 N.am    
  10 C10           -0.3227     9.8702     0.6377 C.3     
  11 C11            0.4617    11.0267     0.0100 C.3     
  12 C12            1.0955    10.5558    -1.3010 C.3     
  13 C13           -0.0037    10.1315    -2.2776 C.3     
  14 C14           -0.7933     8.9648    -1.6758 C.3     
  15 C15           -2.5926     9.2537    -0.0410 C.2     
  16 C16           -3.0552     9.5476     1.3323 C.ar    
  17 C17           -4.1986    10.3182     1.5342 C.ar    
  18 C18           -4.6277    10.5899     2.8307 C.ar    
  19 C19           -3.9109    10.0894     3.9195 C.ar    
  20 C20           -2.7788     9.3265     3.7130 C.ar    
  21 C21           -2.3506     9.0487     2.4299 C.ar    
  22 O22           -3.3917     8.9154    -0.8922 O.2     
  23 N23           -7.4567    12.3857     4.0293 N.2     
  24 N24           -6.4306    11.6322     4.2070 N.2     
  25 C25           -5.8403    11.4077     3.0542 C.2     
  26 N26           -6.5601    12.0743     2.1000 N.pl3   
  27 C27           -7.5801    12.6834     2.7636 C.2     
  28 C28           -8.6553    13.5431     2.1504 C.3     
  29 C29          -10.0299    12.9897     2.5315 C.3     
  30 C30           -4.3738    10.3830     5.3233 C.3     
  31 C31           -4.8644     9.1392     6.0830 C.3     
  32 C32           -4.1538     9.7118     7.3208 C.3     
  33 C33           -3.2282    10.4592     6.3464 C.3     
  34 H34            5.0520    12.4224    -2.8391 H       
  35 H35            3.7360    10.5929    -1.8541 H       
  36 H36            0.2100    12.9852    -2.0711 H       
  37 H37            1.5091    14.8322    -3.0460 H       
  38 H38           -0.8567    10.2265     1.5186 H       
  39 H39            0.3652     9.0740     0.9220 H       
  40 H40           -0.2142    11.8580    -0.1908 H       
  41 H41            1.2438    11.3508     0.6965 H       
  42 H42            1.7521     9.7085    -1.1030 H       
  43 H43           -0.6752    10.9712    -2.4567 H       
  44 H44            0.4472     9.8183    -3.2192 H       
  45 H45           -0.1438     8.0947    -1.5801 H       
  46 H46           -1.6379     8.7236    -2.3213 H       
  47 H47           -4.7493    10.7033     0.6887 H       
  48 H48           -2.2279     8.9421     4.5586 H       
  49 H49           -1.4666     8.4479     2.2750 H       
  50 H50           -6.3800    12.1065     1.1474 H       
  51 H51           -8.5593    14.5639     2.5202 H       
  52 H52           -8.5498    13.5382     1.0655 H       
  53 H53          -10.1259    11.9689     2.1617 H       
  54 H54          -10.1355    12.9946     3.6164 H       
  55 H55          -10.8076    13.6115     2.0880 H       
  56 H56           -5.0631    11.2258     5.3741 H       
  57 H57           -5.9484     9.0897     6.1858 H       
  58 H58           -4.4294     8.2073     5.7219 H       
  59 H59           -4.7823    10.3715     7.9189 H       
  60 H60           -3.6415     8.9575     7.9180 H       
  61 H61           -2.3459     9.8881     6.0573 H       
  62 H62           -2.9913    11.4753     6.6618 H       
@<TRIPOS>BOND
   1    1    2 1
   2    1    8 3
   3    2    3 ar
   4    2    7 ar
   5    3    4 ar
   6    3   34 1
   7    4    5 ar
   8    4   35 1
   9    5    6 ar
  10    5   12 1
  11    6    7 ar
  12    6   36 1
  13    7   37 1
  14    9   10 1
  15    9   14 1
  16    9   15 am
  17   10   11 1
  18   10   38 1
  19   10   39 1
  20   11   12 1
  21   11   40 1
  22   11   41 1
  23   12   13 1
  24   12   42 1
  25   13   14 1
  26   13   43 1
  27   13   44 1
  28   14   45 1
  29   14   46 1
  30   15   16 1
  31   15   22 2
  32   16   17 ar
  33   16   21 ar
  34   17   18 ar
  35   17   47 1
  36   18   19 ar
  37   18   25 1
  38   19   20 ar
  39   19   30 1
  40   20   21 ar
  41   20   48 1
  42   21   49 1
  43   23   24 1
  44   23   27 2
  45   24   25 2
  46   25   26 1
  47   26   27 1
  48   26   50 1
  49   27   28 1
  50   28   29 1
  51   28   51 1
  52   28   52 1
  53   29   53 1
  54   29   54 1
  55   29   55 1
  56   30   31 1
  57   30   33 1
  58   30   56 1
  59   31   32 1
  60   31   57 1
  61   31   58 1
  62   32   33 1
  63   32   59 1
  64   32   60 1
  65   33   61 1
  66   33   62 1

#	End of record

