#	Name: ASD00069256
#	Creating user name:	WinNT
#	Creation time:	15. 06. 2019 18:29

#	Modifying user name:	WinNT
#	Modification time:	15. 06. 2019 18:29

#	Program:	/corina/corina34_cracker 3.40 0067  02.08.2006

@<TRIPOS>MOLECULE
ASD00069256
  80   82    0    0    0
SMALL
NO_CHARGES


@<TRIPOS>ATOM
   1 C1             0.3118     1.4450    -0.1314 C.2     
   2 N2             0.2700     0.0979    -0.1412 N.am    
   3 O3             1.3807     2.0192    -0.0673 O.2     
   4 O4            -0.8306     2.1544    -0.1982 O.3     
   5 C5            -1.0187    -0.5945    -0.2184 C.3     
   6 N6             2.8406    -3.2378    -0.0089 N.3     
   7 C7             2.7706    -2.4119     1.2033 C.3     
   8 C8             1.4972    -1.5637     1.1715 C.3     
   9 C9             1.5134    -0.6740    -0.0745 C.3     
  10 C10            1.6355    -1.5559    -1.3203 C.3     
  11 C11            2.9050    -2.4043    -1.2162 C.3     
  12 C12            3.9234    -4.1216     0.0485 C.ar    
  13 C13            3.7067    -5.4986    -0.0123 C.ar    
  14 C14            4.7845    -6.3690     0.0452 C.ar    
  15 C15            6.0693    -5.8717     0.1628 C.ar    
  16 C16            6.2841    -4.5074     0.2234 C.ar    
  17 C17            5.2159    -3.6316     0.1602 C.ar    
  18 C18            2.1769    -7.1238    -0.8389 C.2     
  19 O19            3.0833    -7.6452    -1.4602 O.2     
  20 N20            2.4045    -6.0001    -0.1305 N.am    
  21 C21            0.8299    -7.7208    -0.8608 C.2     
  22 N22           -0.2299    -7.2550    -0.2340 N.2     
  23 C23           -1.2694    -8.0490    -0.4814 C.2     
  24 C24           -0.8560    -9.0539    -1.2932 C.2     
  25 N25            0.4658    -8.8494    -1.5400 N.pl3   
  26 C26            1.3354    -9.6831    -2.3736 C.3     
  27 O27            0.5803   -10.7710    -2.9106 O.3     
  28 C28            1.3390   -11.6500    -3.7434 C.3     
  29 C29            0.4343   -12.7708    -4.2596 C.3     
  30 Si30           1.4235   -13.9168    -5.3454 Si      
  31 C31            2.8227   -14.6525    -4.3597 C.3     
  32 C32            0.3220   -15.2815    -5.9740 C.3     
  33 C33            2.1149   -12.9625    -6.7884 C.3     
  34 Br34          -3.0232    -7.8161     0.1863 Br      
  35 C35           -0.7099     3.6013    -0.1830 C.3     
  36 C36            0.1270     4.0558    -1.3805 C.3     
  37 C37           -2.1022     4.2301    -0.2658 C.3     
  38 C38           -0.0272     4.0425     1.1132 C.3     
  39 H39           -1.2799    -0.7606    -1.2636 H       
  40 H40           -0.9474    -1.5533     0.2950 H       
  41 H41           -1.7878     0.0153     0.2557 H       
  42 H42            2.7555    -3.0569     2.0819 H       
  43 H43            3.6415    -1.7580     1.2481 H       
  44 H44            0.6253    -2.2172     1.1407 H       
  45 H45            1.4533    -0.9394     2.0639 H       
  46 H46            2.3628     0.0072    -0.0247 H       
  47 H47            0.7659    -2.2093    -1.3903 H       
  48 H48            1.6906    -0.9260    -2.2081 H       
  49 H49            3.7752    -1.7504    -1.1601 H       
  50 H50            2.9874    -3.0438    -2.0950 H       
  51 H51            4.6205    -7.4355    -0.0016 H       
  52 H52            6.9076    -6.5511     0.2077 H       
  53 H53            7.2896    -4.1242     0.3160 H       
  54 H54            5.3877    -2.5663     0.2030 H       
  55 H55            1.6664    -5.5387     0.2976 H       
  56 H56           -1.4629    -9.8617    -1.6749 H       
  57 H57            1.7399    -9.0839    -3.1894 H       
  58 H58            2.1540   -10.0727    -1.7685 H       
  59 H59            1.7435   -11.0917    -4.5876 H       
  60 H60            2.1577   -12.0805    -3.1667 H       
  61 H61            0.0298   -13.3291    -3.4154 H       
  62 H62           -0.3843   -12.3404    -4.8363 H       
  63 H63            2.4182   -15.2109    -3.5155 H       
  64 H64            3.4015   -15.3231    -4.9950 H       
  65 H65            3.4672   -13.8541    -3.9920 H       
  66 H66           -0.4967   -14.8511    -6.5507 H       
  67 H67            0.9007   -15.9520    -6.6093 H       
  68 H68           -0.0826   -15.8398    -5.1298 H       
  69 H69            2.7594   -12.1641    -6.4206 H       
  70 H70            2.6936   -13.6330    -7.4236 H       
  71 H71            1.2962   -12.5321    -7.3651 H       
  72 H72           -0.3594     3.7415    -2.3040 H       
  73 H73            0.2176     5.1420    -1.3691 H       
  74 H74            1.1189     3.6078    -1.3216 H       
  75 H75           -2.6984     3.9063     0.5873 H       
  76 H76           -2.0116     5.3163    -0.2544 H       
  77 H77           -2.5886     3.9158    -1.1892 H       
  78 H78            0.9648     3.5945     1.1721 H       
  79 H79            0.0635     5.1287     1.1246 H       
  80 H80           -0.6234     3.7187     1.9663 H       
@<TRIPOS>BOND
   1    1    2 am
   2    1    3 2
   3    1    4 1
   4    2    5 1
   5    2    9 1
   6    4   35 1
   7    5   39 1
   8    5   40 1
   9    5   41 1
  10    6    7 1
  11    6   11 1
  12    6   12 1
  13    7    8 1
  14    7   42 1
  15    7   43 1
  16    8    9 1
  17    8   44 1
  18    8   45 1
  19    9   10 1
  20    9   46 1
  21   10   11 1
  22   10   47 1
  23   10   48 1
  24   11   49 1
  25   11   50 1
  26   12   13 ar
  27   12   17 ar
  28   13   14 ar
  29   13   20 1
  30   14   15 ar
  31   14   51 1
  32   15   16 ar
  33   15   52 1
  34   16   17 ar
  35   16   53 1
  36   17   54 1
  37   18   19 2
  38   18   20 am
  39   18   21 1
  40   20   55 1
  41   21   22 2
  42   21   25 1
  43   22   23 1
  44   23   24 2
  45   23   34 1
  46   24   25 1
  47   24   56 1
  48   25   26 1
  49   26   27 1
  50   26   57 1
  51   26   58 1
  52   27   28 1
  53   28   29 1
  54   28   59 1
  55   28   60 1
  56   29   30 1
  57   29   61 1
  58   29   62 1
  59   30   31 1
  60   30   32 1
  61   30   33 1
  62   31   63 1
  63   31   64 1
  64   31   65 1
  65   32   66 1
  66   32   67 1
  67   32   68 1
  68   33   69 1
  69   33   70 1
  70   33   71 1
  71   35   36 1
  72   35   38 1
  73   35   37 1
  74   36   72 1
  75   36   73 1
  76   36   74 1
  77   37   75 1
  78   37   76 1
  79   37   77 1
  80   38   78 1
  81   38   79 1
  82   38   80 1

#	End of record

