#	Name: ASD04590713
#	Creating user name:	WinNT
#	Creation time:	15. 06. 2019 20:51

#	Modifying user name:	WinNT
#	Modification time:	15. 06. 2019 20:51

#	Program:	/corina/corina34_cracker 3.40 0067  02.08.2006

@<TRIPOS>MOLECULE
ASD04590713
  61   66    0    0    0
SMALL
NO_CHARGES


@<TRIPOS>ATOM
   1 N1            -0.0171     1.3233    -0.0119 N.ar    
   2 C2             0.0017    -0.0035    -0.0051 C.ar    
   3 N3             1.1298    -0.6949    -0.0118 N.ar    
   4 C4             2.3050    -0.0727    -0.0262 C.ar    
   5 C5             2.3189     1.3367    -0.0341 C.ar    
   6 C6             1.1071     2.0203    -0.0261 C.ar    
   7 N7             3.6029    -0.5189    -0.0358 N.pl3   
   8 C8             4.4817     0.5514    -0.0499 C.ar    
   9 C9             3.7311     1.7389    -0.0495 C.ar    
  10 N10           -1.2020    -0.6888     0.0098 N.pl3   
  11 C11           -2.4019     0.0119     0.1303 C.ar    
  12 C12            4.0024    -1.9284    -0.0309 C.3     
  13 C13            3.4620    -2.6250     1.2302 C.3     
  14 C14            5.8705     0.6466    -0.0633 C.ar    
  15 N15            6.4581     1.8276    -0.0753 N.ar    
  16 C16            5.7743     2.9591    -0.0752 C.ar    
  17 C17            4.4066     2.9601    -0.0621 C.ar    
  18 C18            2.5296    -3.7540     0.7447 C.3     
  19 C19            3.0220    -4.0624    -0.6911 C.3     
  20 C20            3.3794    -2.6583    -1.2388 C.3     
  21 N21           -2.3784     1.3196     0.3309 N.ar    
  22 C22           -3.4885     2.0230     0.4504 C.ar    
  23 C23           -4.7292     1.4088     0.3690 C.ar    
  24 C24           -4.7936     0.0322     0.1583 C.ar    
  25 C25           -3.6094    -0.6709     0.0326 C.ar    
  26 N26           -5.9024     2.1618     0.4972 N.3     
  27 C27           -5.5954     3.5827     0.7126 C.3     
  28 C28           -6.8983     4.3566     0.9267 C.3     
  29 N29           -7.7679     4.1804    -0.2448 N.3     
  30 C30           -8.0749     2.7595    -0.4602 C.3     
  31 C31           -6.7720     1.9856    -0.6743 C.3     
  32 F32            6.6208    -0.4769    -0.0636 F       
  33 C33           -6.5849     5.8428     1.1108 C.3     
  34 O34           -7.7873     6.5477     1.4261 O.3     
  35 H35            1.0847     3.1001    -0.0322 H       
  36 H36           -1.2104    -1.6560    -0.0635 H       
  37 H37            5.0889    -2.0084    -0.0652 H       
  38 H38            4.2863    -3.0439     1.8075 H       
  39 H39            2.9026    -1.9144     1.8386 H       
  40 H40            6.3051     3.8995    -0.0853 H       
  41 H41            3.8584     3.8906    -0.0621 H       
  42 H42            2.6323    -4.6335     1.3804 H       
  43 H43            1.4944    -3.4131     0.7280 H       
  44 H44            3.9031    -4.7037    -0.6679 H       
  45 H45            2.2274    -4.5170    -1.2827 H       
  46 H46            2.4814    -2.1404    -1.5758 H       
  47 H47            4.1023    -2.7382    -2.0506 H       
  48 H48           -3.4302     3.0889     0.6138 H       
  49 H49           -5.7459    -0.4726     0.0910 H       
  50 H50           -3.6221    -1.7383    -0.1316 H       
  51 H51           -4.9609     3.6883     1.5926 H       
  52 H52           -5.0762     3.9789    -0.1601 H       
  53 H53           -7.4041     3.9785     1.8152 H       
  54 H54           -8.6135     4.7231    -0.1524 H       
  55 H55           -8.5940     2.3632     0.4125 H       
  56 H56           -8.7094     2.6539    -1.3402 H       
  57 H57           -6.2662     2.3636    -1.5628 H       
  58 H58           -6.9953     0.9268    -0.8055 H       
  59 H59           -5.8684     5.9651     1.9231 H       
  60 H60           -6.1609     6.2416     0.1893 H       
  61 H61           -7.6635     7.4978     1.5567 H       
@<TRIPOS>BOND
   1    1    2 ar
   2    1    6 ar
   3    2    3 ar
   4    2   10 1
   5    3    4 ar
   6    4    5 ar
   7    4    7 1
   8    5    6 ar
   9    5    9 1
  10    6   35 1
  11    7    8 1
  12    7   12 1
  13    8    9 ar
  14    8   14 ar
  15    9   17 ar
  16   10   11 1
  17   10   36 1
  18   11   21 ar
  19   11   25 ar
  20   12   13 1
  21   12   20 1
  22   12   37 1
  23   13   18 1
  24   13   38 1
  25   13   39 1
  26   14   15 ar
  27   14   32 1
  28   15   16 ar
  29   16   17 ar
  30   16   40 1
  31   17   41 1
  32   18   19 1
  33   18   42 1
  34   18   43 1
  35   19   20 1
  36   19   44 1
  37   19   45 1
  38   20   46 1
  39   20   47 1
  40   21   22 ar
  41   22   23 ar
  42   22   48 1
  43   23   24 ar
  44   23   26 1
  45   24   25 ar
  46   24   49 1
  47   25   50 1
  48   26   27 1
  49   26   31 1
  50   27   28 1
  51   27   51 1
  52   27   52 1
  53   28   29 1
  54   28   33 1
  55   28   53 1
  56   29   30 1
  57   29   54 1
  58   30   31 1
  59   30   55 1
  60   30   56 1
  61   31   57 1
  62   31   58 1
  63   33   34 1
  64   33   59 1
  65   33   60 1
  66   34   61 1

#	End of record

