#	Name: ASD01916248
#	Creating user name:	WinNT
#	Creation time:	15. 06. 2019 20:07

#	Modifying user name:	WinNT
#	Modification time:	15. 06. 2019 20:07

#	Program:	/corina/corina34_cracker 3.40 0067  02.08.2006

@<TRIPOS>MOLECULE
ASD01916248
  34   36    0    0    0
SMALL
NO_CHARGES


@<TRIPOS>ATOM
   1 C1            -0.0526     1.3261    -0.2458 C.ar    
   2 C2             0.0332    -0.0536    -0.1709 C.ar    
   3 C3             1.2285    -0.6576     0.1725 C.ar    
   4 C4             2.3516     0.1251     0.4439 C.ar    
   5 C5             2.2626     1.5155     0.3672 C.ar    
   6 C6             1.0607     2.1111     0.0228 C.ar    
   7 O7             0.9711     3.4649    -0.0531 O.3     
   8 C8             1.4668     4.0760    -1.1612 C.ar    
   9 C9             1.4016     5.4584    -1.3032 C.ar    
  10 N10            1.8953     6.0154    -2.3967 N.ar    
  11 C11            2.4428     5.2792    -3.3428 C.ar    
  12 N12            2.5233     3.9674    -3.2453 N.ar    
  13 C13            2.0578     3.3359    -2.1802 C.ar    
  14 F14           -1.0538    -0.8117    -0.4335 F       
  15 C15            3.6314    -0.5168     0.8118 C.2     
  16 N16            3.7149    -1.8600     0.8857 N.am    
  17 O17            4.6084     0.1667     1.0478 O.2     
  18 C18            4.9441    -2.4693     1.1281 C.ar    
  19 C19            5.0456    -3.8546     1.0876 C.ar    
  20 C20            6.2741    -4.4473     1.3302 C.ar    
  21 C21            7.3619    -3.6279     1.6058 C.ar    
  22 C22            7.1874    -2.2586     1.6296 C.ar    
  23 N23            6.0060    -1.7226     1.3896 N.ar    
  24 Cl24           6.4503    -6.1739     1.2911 Cl      
  25 H25           -0.9874     1.7933    -0.5185 H       
  26 H26            1.2929    -1.7341     0.2310 H       
  27 H27            3.1287     2.1257     0.5766 H       
  28 H28            0.9541     6.0678    -0.5320 H       
  29 H29            2.8363     5.7648    -4.2235 H       
  30 H30            2.1275     2.2606    -2.1067 H       
  31 H31            2.9191    -2.4024     0.7700 H       
  32 H32            4.1786    -4.4609     0.8704 H       
  33 H33            8.3335    -4.0576     1.7998 H       
  34 H34            8.0298    -1.6176     1.8438 H       
@<TRIPOS>BOND
   1    1    2 ar
   2    1    6 ar
   3    1   25 1
   4    2    3 ar
   5    2   14 1
   6    3    4 ar
   7    3   26 1
   8    4    5 ar
   9    4   15 1
  10    5    6 ar
  11    5   27 1
  12    6    7 1
  13    7    8 1
  14    8    9 ar
  15    8   13 ar
  16    9   10 ar
  17    9   28 1
  18   10   11 ar
  19   11   12 ar
  20   11   29 1
  21   12   13 ar
  22   13   30 1
  23   15   16 am
  24   15   17 2
  25   16   18 1
  26   16   31 1
  27   18   19 ar
  28   18   23 ar
  29   19   20 ar
  30   19   32 1
  31   20   21 ar
  32   20   24 1
  33   21   22 ar
  34   21   33 1
  35   22   23 ar
  36   22   34 1

#	End of record

