#	Name: ASD05303053
#	Creating user name:	WinNT
#	Creation time:	15. 06. 2019 20:58

#	Modifying user name:	WinNT
#	Modification time:	15. 06. 2019 20:58

#	Program:	/corina/corina34_cracker 3.40 0067  02.08.2006

@<TRIPOS>MOLECULE
ASD05303053
  31   33    0    0    0
SMALL
NO_CHARGES


@<TRIPOS>ATOM
   1 C1             0.1168     1.5206     0.4817 C.ar    
   2 C2             0.1548     0.2508    -0.0634 C.ar    
   3 C3             1.3349    -0.4703    -0.0582 C.ar    
   4 C4             2.4791     0.0826     0.4939 C.ar    
   5 C5             2.4440     1.3629     1.0409 C.ar    
   6 C6             1.2558     2.0775     1.0329 C.ar    
   7 O7             3.5610     1.9207     1.5778 O.3     
   8 N8             3.6786    -0.6482     0.5073 N.am    
   9 C9             3.6924    -1.9708     0.2481 C.2     
  10 O10            2.6459    -2.5750     0.1149 O.2     
  11 C11            4.6199     1.0445     1.9710 C.3     
  12 C12            4.9210     0.0812     0.8141 C.3     
  13 C13            4.9799    -2.6866     0.1257 C.ar    
  14 C14            5.0763    -4.0259     0.5070 C.ar    
  15 C15            6.2808    -4.6882     0.3897 C.ar    
  16 C16            7.3918    -4.0277    -0.1040 C.ar    
  17 C17            7.3030    -2.7002    -0.4837 C.ar    
  18 C18            6.1032    -2.0278    -0.3770 C.ar    
  19 H19           -0.8059     2.0819     0.4730 H       
  20 H20           -0.7379    -0.1786    -0.4935 H       
  21 H21            1.3644    -1.4626    -0.4834 H       
  22 H22            1.2202     3.0700     1.4573 H       
  23 H23            5.5108     1.6286     2.2013 H       
  24 H24            4.3162     0.4760     2.8501 H       
  25 H25            5.6990    -0.6220     1.1113 H       
  26 H26            5.2450     0.6442    -0.0612 H       
  27 H27            4.2100    -4.5424     0.8932 H       
  28 H28            6.3567    -5.7245     0.6843 H       
  29 H29            8.3325    -4.5506    -0.1931 H       
  30 H30            8.1740    -2.1904    -0.8684 H       
  31 H31            6.0351    -0.9917    -0.6740 H       
@<TRIPOS>BOND
   1    1    2 ar
   2    1    6 ar
   3    1   19 1
   4    2    3 ar
   5    2   20 1
   6    3    4 ar
   7    3   21 1
   8    4    5 ar
   9    4    8 1
  10    5    6 ar
  11    5    7 1
  12    6   22 1
  13    7   11 1
  14    8    9 am
  15    8   12 1
  16    9   10 2
  17    9   13 1
  18   11   12 1
  19   11   23 1
  20   11   24 1
  21   12   25 1
  22   12   26 1
  23   13   14 ar
  24   13   18 ar
  25   14   15 ar
  26   14   27 1
  27   15   16 ar
  28   15   28 1
  29   16   17 ar
  30   16   29 1
  31   17   18 ar
  32   17   30 1
  33   18   31 1

#	End of record

