#	Name: ASD05490140
#	Creating user name:	WinNT
#	Creation time:	15. 06. 2019 21:01

#	Modifying user name:	WinNT
#	Modification time:	15. 06. 2019 21:01

#	Program:	/corina/corina34_cracker 3.40 0067  02.08.2006

@<TRIPOS>MOLECULE
ASD05490140
  81   85    0    0    0
SMALL
NO_CHARGES


@<TRIPOS>ATOM
   1 N1             0.0591     1.2548     0.1892 N.ar    
   2 C2             1.1649     1.9825     0.1597 C.ar    
   3 C3             2.4092     1.3790     0.0797 C.ar    
   4 C4             2.4883    -0.0111     0.0301 C.ar    
   5 C5             1.3048    -0.7439     0.0632 C.ar    
   6 C6             0.0949    -0.0698     0.1439 C.ar    
   7 O7             1.0782     3.3357     0.2080 O.3     
   8 N8            -1.0930    -0.7912     0.1775 N.pl3   
   9 N9             3.7247    -0.6540    -0.0513 N.am    
  10 C10            4.2505    -1.0683    -1.3544 C.3     
  11 C11            5.0112     0.0747    -1.9756 C.ar    
  12 C12            6.3763     0.1812    -1.7796 C.ar    
  13 C13            4.3427     1.0103    -2.7443 C.ar    
  14 C14            7.0780     1.2260    -2.3462 C.ar    
  15 C15            6.4088     2.1743    -3.1171 C.ar    
  16 C16            5.0346     2.0587    -3.3163 C.ar    
  17 C17            7.1578     3.2998    -3.7288 C.ar    
  18 C18           -0.2325     3.8993     0.2894 C.3     
  19 C19           -0.1296     5.4252     0.3342 C.3     
  20 C20           -1.5343     6.0348     0.2957 C.3     
  21 C21           -1.4252     7.5568     0.4202 C.3     
  22 C22            6.4953     4.2558    -4.5036 C.ar    
  23 C23            8.5317     3.4237    -3.5352 C.ar    
  24 N24            9.1978     4.4230    -4.0769 N.ar    
  25 C25            8.6011     5.3373    -4.8168 C.ar    
  26 C26            7.2390     5.2865    -5.0518 C.ar    
  27 C27           10.5352     8.5469    -4.8779 C.3     
  28 C28           11.2487     9.0770    -3.6205 C.3     
  29 N29            9.5510     7.5395    -4.4261 N.3     
  30 C30           10.0669     7.0208    -3.1334 C.3     
  31 C31           10.6316     8.2877    -2.4431 C.3     
  32 O32           -0.7416     7.8865     1.6311 O.3     
  33 C33            0.5938     7.3830     1.7030 C.3     
  34 C34            0.5658     5.8541     1.6299 C.3     
  35 C35            9.4150     6.4579    -5.4108 C.3     
  36 N36            1.3370    -2.2229     0.0124 N.pl3   
  37 O37            1.4832    -2.8644     1.0374 O.2     
  38 O38            1.2174    -2.7985    -1.0543 O.2     
  39 C39            4.4347    -0.8936     1.0690 C.2     
  40 O40            5.5108    -1.4532     0.9981 O.2     
  41 O41            3.9514    -0.5129     2.2666 O.3     
  42 C42            4.0620    -0.3004     4.6900 C.3     
  43 C43            4.7699    -0.8032     3.4302 C.3     
  44 H44            3.3071     1.9787     0.0557 H       
  45 H45           -1.0730    -1.7604     0.1446 H       
  46 H46           -1.9419    -0.3252     0.2339 H       
  47 H47            4.9179    -1.9200    -1.2228 H       
  48 H48            3.4241    -1.3516    -2.0063 H       
  49 H49            6.8940    -0.5544    -1.1819 H       
  50 H50            3.2774     0.9202    -2.8975 H       
  51 H51            8.1437     1.3085    -2.1919 H       
  52 H52            4.5110     2.7907    -3.9133 H       
  53 H53           -0.8117     3.5997    -0.5839 H       
  54 H54           -0.7262     3.5418     1.1930 H       
  55 H55            0.4444     5.7773    -0.5229 H       
  56 H56           -2.0161     5.7802    -0.6483 H       
  57 H57           -2.1243     5.6429     1.1242 H       
  58 H58           -0.8695     7.9522    -0.4301 H       
  59 H59           -2.4241     7.9927     0.4364 H       
  60 H60            5.4303     4.1919    -4.6707 H       
  61 H61            9.0556     2.6943    -2.9353 H       
  62 H62            6.7614     6.0410    -5.6594 H       
  63 H63           10.0234     9.3639    -5.3866 H       
  64 H64           11.2592     8.0840    -5.5484 H       
  65 H65           12.3199     8.8854    -3.6843 H       
  66 H66           11.0610    10.1440    -3.5004 H       
  67 H67            9.2594     6.5884    -2.5427 H       
  68 H68           10.8573     6.2891    -3.3005 H       
  69 H69           11.3970     8.0211    -1.7142 H       
  70 H70            9.8318     8.8595    -1.9725 H       
  71 H71            1.1759     7.7761     0.8694 H       
  72 H72            1.0494     7.6937     2.6432 H       
  73 H73            0.0182     5.4585     2.4854 H       
  74 H74            1.5859     5.4702     1.6401 H       
  75 H75           10.4034     6.0857    -5.6805 H       
  76 H76            8.9145     6.8381    -6.3013 H       
  77 H77            4.6764    -0.5184     5.5635 H       
  78 H78            3.9067     0.7758     4.6144 H       
  79 H79            3.0986    -0.8004     4.7895 H       
  80 H80            4.9252    -1.8795     3.5058 H       
  81 H81            5.7333    -0.3032     3.3307 H       
@<TRIPOS>BOND
   1    1    2 ar
   2    1    6 ar
   3    2    3 ar
   4    2    7 1
   5    3    4 ar
   6    3   44 1
   7    4    5 ar
   8    4    9 1
   9    5    6 ar
  10    5   36 1
  11    6    8 1
  12    7   18 1
  13    8   45 1
  14    8   46 1
  15    9   10 1
  16    9   39 am
  17   10   11 1
  18   10   47 1
  19   10   48 1
  20   11   12 ar
  21   11   13 ar
  22   12   14 ar
  23   12   49 1
  24   13   16 ar
  25   13   50 1
  26   14   15 ar
  27   14   51 1
  28   15   16 ar
  29   15   17 1
  30   16   52 1
  31   17   22 ar
  32   17   23 ar
  33   18   19 1
  34   18   53 1
  35   18   54 1
  36   19   20 1
  37   19   34 1
  38   19   55 1
  39   20   21 1
  40   20   56 1
  41   20   57 1
  42   21   32 1
  43   21   58 1
  44   21   59 1
  45   22   26 ar
  46   22   60 1
  47   23   24 ar
  48   23   61 1
  49   24   25 ar
  50   25   26 ar
  51   25   35 1
  52   26   62 1
  53   27   28 1
  54   27   29 1
  55   27   63 1
  56   27   64 1
  57   28   31 1
  58   28   65 1
  59   28   66 1
  60   29   30 1
  61   29   35 1
  62   30   31 1
  63   30   67 1
  64   30   68 1
  65   31   69 1
  66   31   70 1
  67   32   33 1
  68   33   34 1
  69   33   71 1
  70   33   72 1
  71   34   73 1
  72   34   74 1
  73   35   75 1
  74   35   76 1
  75   36   37 2
  76   36   38 2
  77   39   40 2
  78   39   41 1
  79   41   43 1
  80   42   43 1
  81   42   77 1
  82   42   78 1
  83   42   79 1
  84   43   80 1
  85   43   81 1

#	End of record

