#	Name: ASD01814535
#	Creating user name:	WinNT
#	Creation time:	15. 06. 2019 19:32

#	Modifying user name:	WinNT
#	Modification time:	15. 06. 2019 19:32

#	Program:	/corina/corina34_cracker 3.40 0067  02.08.2006

@<TRIPOS>MOLECULE
ASD01814535
  60   65    0    0    0
SMALL
NO_CHARGES


@<TRIPOS>ATOM
   1 C1            -0.0183     4.0465     2.4380 C.ar    
   2 C2            -1.2233     4.1874     1.7637 C.ar    
   3 C3            -2.4080     4.2440     2.4726 C.ar    
   4 C4            -2.3952     4.1611     3.8525 C.ar    
   5 C5            -1.1971     4.0211     4.5293 C.ar    
   6 C6            -0.0083     3.9570     3.8262 C.ar    
   7 F7             1.1621     3.8197     4.4870 F       
   8 N8             1.1842     3.9888     1.7220 N.am    
   9 C9             1.8930     5.0593     1.3083 C.2     
  10 N10            1.8336     2.8128     1.3339 N.2     
  11 C11            2.9308     3.1085     0.6812 C.2     
  12 C12            3.0232     4.5704     0.6321 C.2     
  13 O13            1.6052     6.2352     1.4875 O.2     
  14 N14            3.9269     2.3504     0.0878 N.pl3   
  15 C15            4.9767     2.9671    -0.5354 C.2     
  16 C16            5.0710     4.3713    -0.5890 C.2     
  17 C17            4.1184     5.1667    -0.0187 C.2     
  18 C18            3.8517     0.9937     0.1311 C.2     
  19 C19            4.8104     0.2267    -0.4399 C.2     
  20 C20            5.8974     0.8282    -1.0858 C.2     
  21 C21            5.9810     2.1899    -1.1337 C.2     
  22 N22            6.1645     4.9637    -1.2379 N.pl3   
  23 C23            6.3502     4.8063    -2.6869 C.3     
  24 C24            7.1424     5.7586    -0.4826 C.3     
  25 C25            7.2764     7.1338    -1.1441 C.3     
  26 C26            7.6226     6.9521    -2.6237 C.3     
  27 C27            6.4947     6.1942    -3.3191 C.3     
  28 C28            7.7887     8.3033    -3.2700 C.ar    
  29 N29            7.3488     9.3811    -2.6489 N.ar    
  30 C30            7.4711    10.5861    -3.1732 C.ar    
  31 C31            8.0696    10.7644    -4.4032 C.ar    
  32 C32            8.5475     9.6517    -5.0914 C.ar    
  33 C33            8.4042     8.3986    -4.5014 C.ar    
  34 O34            9.1425     9.7861    -6.3041 O.3     
  35 C35            9.2513    11.1102    -6.8302 C.3     
  36 C36            8.8784     6.1936    -2.7440 C.1     
  37 N37            9.8475     5.6082    -2.8369 N.1     
  38 H38           -1.2349     4.2530     0.6857 H       
  39 H39           -3.3455     4.3536     1.9477 H       
  40 H40           -3.3230     4.2061     4.4035 H       
  41 H41           -1.1906     3.9570     5.6073 H       
  42 H42            4.2045     6.2422    -0.0679 H       
  43 H43            3.0168     0.5216     0.6275 H       
  44 H44            4.7367    -0.8499    -0.3968 H       
  45 H45            6.6639     0.2196    -1.5423 H       
  46 H46            6.8143     2.6662    -1.6288 H       
  47 H47            7.2501     4.2220    -2.8785 H       
  48 H48            5.4848     4.2989    -3.1132 H       
  49 H49            6.7996     5.8792     0.5450 H       
  50 H50            8.1083     5.2534    -0.4908 H       
  51 H51            6.3339     7.6739    -1.0546 H       
  52 H52            8.0682     7.6986    -0.6519 H       
  53 H53            6.7290     6.0844    -4.3780 H       
  54 H54            5.5621     6.7472    -3.2078 H       
  55 H55            7.0977    11.4433    -2.6326 H       
  56 H56            8.1660    11.7531    -4.8269 H       
  57 H57            8.7625     7.5125    -5.0043 H       
  58 H58            8.2556    11.5392    -6.9433 H       
  59 H59            9.8366    11.7257    -6.1470 H       
  60 H60            9.7446    11.0758    -7.8016 H       
@<TRIPOS>BOND
   1    1    2 ar
   2    1    8 1
   3    1    6 ar
   4    2    3 ar
   5    2   38 1
   6    3    4 ar
   7    3   39 1
   8    4    5 ar
   9    4   40 1
  10    5    6 ar
  11    5   41 1
  12    6    7 1
  13    8    9 am
  14    8   10 1
  15    9   13 2
  16    9   12 1
  17   10   11 2
  18   11   12 1
  19   11   14 1
  20   12   17 2
  21   14   15 1
  22   14   18 1
  23   15   16 2
  24   15   21 1
  25   16   17 1
  26   16   22 1
  27   17   42 1
  28   18   19 2
  29   18   43 1
  30   19   20 1
  31   19   44 1
  32   20   21 2
  33   20   45 1
  34   21   46 1
  35   22   23 1
  36   22   24 1
  37   23   27 1
  38   23   47 1
  39   23   48 1
  40   24   25 1
  41   24   49 1
  42   24   50 1
  43   25   26 1
  44   25   51 1
  45   25   52 1
  46   26   27 1
  47   26   36 1
  48   26   28 1
  49   27   53 1
  50   27   54 1
  51   28   29 ar
  52   28   33 ar
  53   29   30 ar
  54   30   31 ar
  55   30   55 1
  56   31   32 ar
  57   31   56 1
  58   32   33 ar
  59   32   34 1
  60   33   57 1
  61   34   35 1
  62   35   58 1
  63   35   59 1
  64   35   60 1
  65   36   37 3

#	End of record

