#	Name: ASD01190119
#	Creating user name:	WinNT
#	Creation time:	15. 06. 2019 19:07

#	Modifying user name:	WinNT
#	Modification time:	15. 06. 2019 19:07

#	Program:	/corina/corina34_cracker 3.40 0067  02.08.2006

@<TRIPOS>MOLECULE
ASD01190119
  53   57    0    0    0
SMALL
NO_CHARGES


@<TRIPOS>ATOM
   1 C1            -0.0790     1.2681     0.0666 C.2     
   2 N2            -0.0789    -0.0743    -0.0364 N.am    
   3 C3             1.2428    -0.5137    -0.0516 C.ar    
   4 C4             2.0474     0.6239     0.0469 C.ar    
   5 N5             1.1885     1.7192     0.1189 N.am    
   6 C6             1.8278    -1.7672    -0.1400 C.ar    
   7 C7             3.2041    -1.8860    -0.1303 C.ar    
   8 C8             4.0013    -0.7589    -0.0322 C.ar    
   9 C9             3.4275     0.4947     0.0558 C.ar    
  10 O10           -1.0738     1.9680     0.1018 O.2     
  11 C11            3.8403    -3.2488    -0.2264 C.3     
  12 C12            3.5893    -4.0214     1.0702 C.3     
  13 N13            2.2157    -5.5677    -2.5802 N.pl3   
  14 C14            2.6344    -5.1998    -1.3306 C.2     
  15 C15            3.2398    -4.0029    -1.3848 C.2     
  16 C16            3.2060    -3.5689    -2.7835 C.ar    
  17 C17            3.6641    -2.4363    -3.4595 C.ar    
  18 C18            3.4723    -2.3274    -4.8079 C.ar    
  19 C19            2.8255    -3.3342    -5.5118 C.ar    
  20 C20            2.3652    -4.4597    -4.8647 C.ar    
  21 C21            2.5499    -4.5917    -3.4921 C.ar    
  22 C22            1.5208    -6.8169    -2.9012 C.3     
  23 O23            5.2473    -3.1044    -0.4301 O.3     
  24 F24            2.2118    -4.1627     1.2696 F       
  25 F25            4.1798    -5.2865     0.9809 F       
  26 F26            4.1467    -3.3213     2.1455 F       
  27 C27           -1.2668    -0.9277    -0.1180 C.3     
  28 C28            1.5778     3.0616     0.2266 C.ar    
  29 C29            1.3364     3.9415    -0.8198 C.ar    
  30 C30            1.7208     5.2637    -0.7118 C.ar    
  31 C31            2.3467     5.7119     0.4392 C.ar    
  32 C32            2.5884     4.8358     1.4841 C.ar    
  33 C33            2.2003     3.5142     1.3821 C.ar    
  34 F34            2.7224     7.0054     0.5428 F       
  35 H35            1.2089    -2.6491    -0.2160 H       
  36 H36            5.0766    -0.8598    -0.0246 H       
  37 H37            4.0527     1.3720     0.1316 H       
  38 H38            2.4977    -5.7854    -0.4335 H       
  39 H39            4.1678    -1.6490    -2.9185 H       
  40 H40            3.8265    -1.4511    -5.3303 H       
  41 H41            2.6814    -3.2337    -6.5774 H       
  42 H42            1.8628    -5.2372    -5.4210 H       
  43 H43            0.4447    -6.6668    -2.8137 H       
  44 H44            1.7642    -7.1165    -3.9205 H       
  45 H45            1.8364    -7.5966    -2.2080 H       
  46 H46            5.4807    -2.6231    -1.2357 H       
  47 H47           -2.1627    -0.3078    -0.0831 H       
  48 H48           -1.2486    -1.4874    -1.0531 H       
  49 H49           -1.2731    -1.6230     0.7215 H       
  50 H50            0.8486     3.5922    -1.7178 H       
  51 H51            1.5335     5.9483    -1.5258 H       
  52 H52            3.0766     5.1872     2.3810 H       
  53 H53            2.3847     2.8324     2.1991 H       
@<TRIPOS>BOND
   1    1    2 am
   2    1    5 am
   3    1   10 2
   4    2    3 1
   5    2   27 1
   6    3    4 ar
   7    3    6 ar
   8    4    5 1
   9    4    9 ar
  10    5   28 1
  11    6    7 ar
  12    6   35 1
  13    7    8 ar
  14    7   11 1
  15    8    9 ar
  16    8   36 1
  17    9   37 1
  18   11   12 1
  19   11   15 1
  20   11   23 1
  21   12   24 1
  22   12   25 1
  23   12   26 1
  24   13   14 1
  25   13   21 1
  26   13   22 1
  27   14   15 2
  28   14   38 1
  29   15   16 1
  30   16   17 ar
  31   16   21 ar
  32   17   18 ar
  33   17   39 1
  34   18   19 ar
  35   18   40 1
  36   19   20 ar
  37   19   41 1
  38   20   21 ar
  39   20   42 1
  40   22   43 1
  41   22   44 1
  42   22   45 1
  43   23   46 1
  44   27   47 1
  45   27   48 1
  46   27   49 1
  47   28   29 ar
  48   28   33 ar
  49   29   30 ar
  50   29   50 1
  51   30   31 ar
  52   30   51 1
  53   31   32 ar
  54   31   34 1
  55   32   33 ar
  56   32   52 1
  57   33   53 1

#	End of record

