#	Name: ASD00842119
#	Creating user name:	WinNT
#	Creation time:	15. 06. 2019 18:43

#	Modifying user name:	WinNT
#	Modification time:	15. 06. 2019 18:43

#	Program:	/corina/corina34_cracker 3.40 0067  02.08.2006

@<TRIPOS>MOLECULE
ASD00842119
  95  100    0    0    0
SMALL
NO_CHARGES


@<TRIPOS>ATOM
   1 F1             6.0175    -1.7141    -2.1436 F       
   2 C2             0.9004     1.5156    -0.6773 C.ar    
   3 C3             1.2288     0.1764    -0.8273 C.ar    
   4 C4             1.2049    -0.6689     0.2728 C.ar    
   5 C5             0.8542    -0.1750     1.5141 C.ar    
   6 C6             0.5267     1.1604     1.6610 C.ar    
   7 C7             0.5502     2.0047     0.5665 C.ar    
   8 C8             1.5607    -2.1246     0.1133 C.3     
   9 C9             1.3408    -2.8697     1.4126 C.2     
  10 C10            0.7386    -2.7556    -1.0123 C.3     
  11 C11           -0.7277    -2.5215    -0.7554 C.2     
  12 N12           -1.6499    -3.0526    -1.5824 N.am    
  13 O13           -1.0780    -1.8552     0.1955 O.2     
  14 C14           -3.0753    -2.7377    -1.4152 C.3     
  15 C15           -3.8613    -4.0486    -1.3136 C.3     
  16 C16           -3.5491    -4.9216    -2.5313 C.3     
  17 C17           -2.0555    -5.2544    -2.5530 C.3     
  18 C18           -1.2484    -3.9526    -2.6721 C.3     
  19 C19           -4.3588    -6.2172    -2.4506 C.3     
  20 C20           -5.8536    -5.8860    -2.4305 C.3     
  21 C21           -6.6592    -7.1871    -2.4113 C.3     
  22 N22           -6.3323    -7.9843    -3.6004 N.3     
  23 C23           -4.9113    -8.3545    -3.6172 C.3     
  24 C24           -4.0535    -7.0883    -3.6723 C.3     
  25 C25           -7.1877    -9.1754    -3.6871 C.3     
  26 O26            0.2871    -2.9996     1.9990 O.2     
  27 N27            2.5320    -3.3608     1.7937 N.am    
  28 C28            3.0398    -2.2817    -0.1552 C.ar    
  29 C29            3.5501    -3.0337     0.8956 C.ar    
  30 C30            3.8585    -1.8402    -1.1700 C.ar    
  31 C31            5.2101    -2.1457    -1.1501 C.ar    
  32 C32            5.7306    -2.8951    -0.1072 C.ar    
  33 C33            4.9094    -3.3380     0.9107 C.ar    
  34 Cl34           7.4234    -3.2790    -0.0802 Cl      
  35 C35            2.5334    -5.9441     2.7428 C.ar    
  36 C36            1.2867    -6.3909     2.3300 C.ar    
  37 C37            3.5939    -6.8270     2.8128 C.ar    
  38 C38            3.4135    -8.1544     2.4715 C.ar    
  39 C39            2.1717    -8.6022     2.0596 C.ar    
  40 C40            1.1082    -7.7238     1.9883 C.ar    
  41 H41            2.0333    -9.6397     1.7935 H       
  42 O42            0.2419    -5.5246     2.2606 O.3     
  43 C43           -1.0125    -6.0545     1.8273 C.3     
  44 C44           -2.0597    -4.9391     1.8130 C.3     
  45 C45           -6.9958    -9.8429    -5.0504 C.3     
  46 O46            1.5731    -0.3072    -2.0498 O.3     
  47 C47            1.9920    -0.0927    -4.4203 C.3     
  48 C48            1.4676     0.5912    -3.1561 C.3     
  49 S49            2.7660    -4.2507     3.1705 S.o2    
  50 O50            4.1379    -4.1080     3.5122 O.2     
  51 O51            1.7057    -3.9105     4.0532 O.2     
  52 H52            0.9226     2.1765    -1.5312 H       
  53 H53            0.8354    -0.8325     2.3707 H       
  54 H54            0.2521     1.5445     2.6323 H       
  55 H55            0.2941     3.0473     0.6838 H       
  56 H56            1.0177    -2.3030    -1.9638 H       
  57 H57            0.9346    -3.8273    -1.0484 H       
  58 H58           -3.2165    -2.1555    -0.5046 H       
  59 H59           -3.4266    -2.1666    -2.2746 H       
  60 H60           -3.5731    -4.5761    -0.4043 H       
  61 H61           -4.9290    -3.8314    -1.2859 H       
  62 H62           -3.8146    -4.3837    -3.4414 H       
  63 H63           -1.7843    -5.7705    -1.6321 H       
  64 H64           -1.8380    -5.8953    -3.4074 H       
  65 H65           -1.4520    -3.4833    -3.6346 H       
  66 H66           -0.1843    -4.1735    -2.5887 H       
  67 H67           -4.0931    -6.7569    -1.5417 H       
  68 H68           -6.0849    -5.3016    -1.5399 H       
  69 H69           -6.1111    -5.3116    -3.3204 H       
  70 H70           -6.4115    -7.7545    -1.5142 H       
  71 H71           -7.7242    -6.9548    -2.4114 H       
  72 H72           -4.6717    -8.9164    -2.7144 H       
  73 H73           -4.7068    -8.9702    -4.4930 H       
  74 H74           -4.2827    -6.5329    -4.5818 H       
  75 H75           -2.9987    -7.3630    -3.6690 H       
  76 H76           -6.9157    -9.8763    -2.8979 H       
  77 H77           -8.2310    -8.8828    -3.5694 H       
  78 H78            3.4479    -1.2567    -1.9809 H       
  79 H79            5.3219    -3.9216     1.7203 H       
  80 H80            4.5647    -6.4796     3.1342 H       
  81 H81            4.2439    -8.8427     2.5262 H       
  82 H82            0.1383    -8.0742     1.6673 H       
  83 H83           -0.9059    -6.4657     0.8235 H       
  84 H84           -1.3298    -6.8420     2.5108 H       
  85 H85           -2.1662    -4.5278     2.8168 H       
  86 H86           -1.7423    -4.1515     1.1295 H       
  87 H87           -3.0165    -5.3432     1.4825 H       
  88 H88           -7.2678    -9.1420    -5.8396 H       
  89 H89           -5.9524   -10.1355    -5.1681 H       
  90 H90           -7.6305   -10.7267    -5.1148 H       
  91 H91            1.3490    -0.9366    -4.6703 H       
  92 H92            1.9933     0.6200    -5.2450 H       
  93 H93            3.0074    -0.4488    -4.2462 H       
  94 H94            0.4235     0.8693    -3.3000 H       
  95 H95            2.0575     1.4855    -2.9555 H       
@<TRIPOS>BOND
   1    1   31 1
   2    2    3 ar
   3    2    7 ar
   4    2   52 1
   5    3    4 ar
   6    3   46 1
   7    4    5 ar
   8    4    8 1
   9    5    6 ar
  10    5   53 1
  11    6    7 ar
  12    6   54 1
  13    7   55 1
  14    8    9 1
  15    8   10 1
  16    8   28 1
  17    9   26 2
  18    9   27 am
  19   10   11 1
  20   10   56 1
  21   10   57 1
  22   11   12 am
  23   11   13 2
  24   12   14 1
  25   12   18 1
  26   14   15 1
  27   14   58 1
  28   14   59 1
  29   15   16 1
  30   15   60 1
  31   15   61 1
  32   16   17 1
  33   16   19 1
  34   16   62 1
  35   17   18 1
  36   17   63 1
  37   17   64 1
  38   18   65 1
  39   18   66 1
  40   19   20 1
  41   19   24 1
  42   19   67 1
  43   20   21 1
  44   20   68 1
  45   20   69 1
  46   21   22 1
  47   21   70 1
  48   21   71 1
  49   22   23 1
  50   22   25 1
  51   23   24 1
  52   23   72 1
  53   23   73 1
  54   24   74 1
  55   24   75 1
  56   25   45 1
  57   25   76 1
  58   25   77 1
  59   27   49 am
  60   27   29 1
  61   28   29 ar
  62   28   30 ar
  63   29   33 ar
  64   30   31 ar
  65   30   78 1
  66   31   32 ar
  67   32   33 ar
  68   32   34 1
  69   33   79 1
  70   35   36 ar
  71   35   37 ar
  72   35   49 1
  73   36   42 1
  74   36   40 ar
  75   37   38 ar
  76   37   80 1
  77   38   39 ar
  78   38   81 1
  79   39   40 ar
  80   39   41 1
  81   40   82 1
  82   42   43 1
  83   43   44 1
  84   43   83 1
  85   43   84 1
  86   44   85 1
  87   44   86 1
  88   44   87 1
  89   45   88 1
  90   45   89 1
  91   45   90 1
  92   46   48 1
  93   47   48 1
  94   47   91 1
  95   47   92 1
  96   47   93 1
  97   48   94 1
  98   48   95 1
  99   49   50 2
 100   49   51 2

#	End of record

