#	Name: ASD06660026
#	Creating user name:	WinNT
#	Creation time:	15. 06. 2019 21:07

#	Modifying user name:	WinNT
#	Modification time:	15. 06. 2019 21:07

#	Program:	/corina/corina34_cracker 3.40 0067  02.08.2006

@<TRIPOS>MOLECULE
ASD06660026
  66   69    0    0    0
SMALL
NO_CHARGES


@<TRIPOS>ATOM
   1 C1            -0.4257     1.5257     1.0358 C.2     
   2 C2            -0.2851     0.0801     0.6339 C.3     
   3 C3            -1.3041    -0.2466    -0.4596 C.3     
   4 O4             0.5090     2.2811     0.9110 O.2     
   5 O5            -1.5910     1.9754     1.5273 O.3     
   6 C6            -1.2630    -1.7228    -0.7597 C.ar    
   7 C7            -2.0501    -2.5962    -0.0307 C.ar    
   8 C8            -2.0165    -3.9489    -0.3003 C.ar    
   9 C9            -1.1870    -4.4353    -1.3109 C.ar    
  10 C10           -0.3960    -3.5495    -2.0427 C.ar    
  11 C11           -0.4424    -2.1983    -1.7669 C.ar    
  12 O12           -1.8849    -6.7939    -0.9351 O.3     
  13 C13           -1.1458    -5.8852    -1.6050 C.2     
  14 N14           -0.3968    -6.3986    -2.5301 N.2     
  15 C15           -0.6151    -7.8581    -2.5512 C.3     
  16 C16           -1.9159    -8.0011    -1.7239 C.3     
  17 C17           -0.8197    -8.3593    -3.9822 C.3     
  18 N18            0.3310    -7.9750    -4.8035 N.pl3   
  19 C19            0.3718    -8.3226    -6.1487 C.ar    
  20 C20           -0.6835    -9.0356    -6.7089 C.ar    
  21 C21           -0.6298    -9.3749    -8.0486 C.ar    
  22 C22            0.4817    -8.9883    -8.7862 C.ar    
  23 C23            1.4925    -8.2823    -8.1659 C.ar    
  24 N24            1.4120    -7.9675    -6.8868 N.ar    
  25 C25            2.0966    -0.2938     0.9869 C.2     
  26 C26            3.4750    -0.4402     0.4743 C.ar    
  27 C27            4.0419    -1.7092     0.3404 C.ar    
  28 C28            5.3281    -1.8396    -0.1388 C.ar    
  29 C29            6.0579    -0.7147    -0.4869 C.ar    
  30 C30            5.5010     0.5466    -0.3563 C.ar    
  31 C31            4.2133     0.6892     0.1165 C.ar    
  32 O32            1.8901    -0.2974     2.1848 O.2     
  33 N33            1.0686    -0.1561     0.1262 N.am    
  34 C34            3.6065     2.0620     0.2521 C.3     
  35 C35            3.2497    -2.9339     0.7195 C.3     
  36 C36            2.4077    -3.3866    -0.4751 C.3     
  37 Cl37           7.6772    -0.8867    -1.0885 Cl      
  38 H38           -0.4647    -0.5569     1.5000 H       
  39 H39           -2.3027     0.0273    -0.1192 H       
  40 H40           -1.0613     0.3145    -1.3620 H       
  41 H41           -1.6331     2.9102     1.7713 H       
  42 H42           -2.6920    -2.2184     0.7515 H       
  43 H43           -2.6310    -4.6298     0.2700 H       
  44 H44            0.2485    -3.9201    -2.8261 H       
  45 H45            0.1665    -1.5111    -2.3355 H       
  46 H46            0.2112    -8.3823    -2.0710 H       
  47 H47           -1.8800    -8.8855    -1.0878 H       
  48 H48           -2.7918    -8.0226    -2.3723 H       
  49 H49           -0.9156    -9.4451    -3.9766 H       
  50 H50           -1.7256    -7.9167    -4.3962 H       
  51 H51            1.0643    -7.4779    -4.4085 H       
  52 H52           -1.5328    -9.3206    -6.1058 H       
  53 H53           -1.4339    -9.9283    -8.5107 H       
  54 H54            0.5544    -9.2379    -9.8344 H       
  55 H55            2.3586    -7.9797    -8.7358 H       
  56 H56            5.7676    -2.8206    -0.2428 H       
  57 H57            6.0748     1.4199    -0.6289 H       
  58 H58            1.2251    -0.2135    -0.8294 H       
  59 H59            3.8238     2.4590     1.2437 H       
  60 H60            4.0296     2.7227    -0.5046 H       
  61 H61            2.5270     1.9973     0.1152 H       
  62 H62            3.9323    -3.7336     1.0069 H       
  63 H63            2.5939    -2.6974     1.5575 H       
  64 H64            1.7974    -2.5544    -0.8256 H       
  65 H65            3.0656    -3.7184    -1.2783 H       
  66 H66            1.7604    -4.2097    -0.1722 H       
@<TRIPOS>BOND
   1    1    2 1
   2    1    4 2
   3    1    5 1
   4    2    3 1
   5    2   33 1
   6    2   38 1
   7    3    6 1
   8    3   39 1
   9    3   40 1
  10    5   41 1
  11    6    7 ar
  12    6   11 ar
  13    7    8 ar
  14    7   42 1
  15    8    9 ar
  16    8   43 1
  17    9   10 ar
  18    9   13 1
  19   10   11 ar
  20   10   44 1
  21   11   45 1
  22   12   13 1
  23   12   16 1
  24   13   14 2
  25   14   15 1
  26   15   16 1
  27   15   17 1
  28   15   46 1
  29   16   47 1
  30   16   48 1
  31   17   18 1
  32   17   49 1
  33   17   50 1
  34   18   19 1
  35   18   51 1
  36   19   20 ar
  37   19   24 ar
  38   20   21 ar
  39   20   52 1
  40   21   22 ar
  41   21   53 1
  42   22   23 ar
  43   22   54 1
  44   23   24 ar
  45   23   55 1
  46   25   26 1
  47   25   32 2
  48   25   33 am
  49   26   27 ar
  50   26   31 ar
  51   27   28 ar
  52   27   35 1
  53   28   29 ar
  54   28   56 1
  55   29   30 ar
  56   29   37 1
  57   30   31 ar
  58   30   57 1
  59   31   34 1
  60   33   58 1
  61   34   59 1
  62   34   60 1
  63   34   61 1
  64   35   36 1
  65   35   62 1
  66   35   63 1
  67   36   64 1
  68   36   65 1
  69   36   66 1

#	End of record

