#	Name: ASD02198033
#	Creating user name:	WinNT
#	Creation time:	15. 06. 2019 20:18

#	Modifying user name:	WinNT
#	Modification time:	15. 06. 2019 20:18

#	Program:	/corina/corina34_cracker 3.40 0067  02.08.2006

@<TRIPOS>MOLECULE
ASD02198033
  32   34    0    0    0
SMALL
NO_CHARGES


@<TRIPOS>ATOM
   1 C1             0.0463     1.4866     0.4386 C.2     
   2 C2             0.0182     0.0979     0.4233 C.2     
   3 C3            -1.2116    -0.5706     0.6920 C.2     
   4 S4             1.6128     2.0752     0.0928 S.3     
   5 C5             2.2810     0.4658    -0.0835 C.2     
   6 C6             1.3162    -0.4781     0.1204 C.2     
   7 C7             3.6286     0.1842    -0.3939 C.2     
   8 O8             4.0269    -0.9678    -0.3905 O.2     
   9 C9             4.5578     1.2871    -0.7234 C.ar    
  10 N10            1.5509    -1.8419     0.0470 N.pl3   
  11 C11            5.9144     1.1757    -0.4152 C.ar    
  12 C12            4.0819     2.4409    -1.3489 C.ar    
  13 C13            4.9522     3.4662    -1.6538 C.ar    
  14 C14            6.2967     3.3534    -1.3409 C.ar    
  15 C15            6.7765     2.2082    -0.7251 C.ar    
  16 Cl16           8.4632     2.0751    -0.3363 Cl      
  17 Cl17           7.3862     4.6483    -1.7279 Cl      
  18 C18           -2.3271     0.1529     0.9563 C.2     
  19 C19           -2.2637     1.5573     0.9638 C.2     
  20 N20           -1.1059     2.1885     0.7159 N.am    
  21 C21           -1.2718    -2.0764     0.6817 C.3     
  22 O22           -3.2681     2.2070     1.2018 O.2     
  23 H23            0.9931    -2.4576     0.5476 H       
  24 H24            2.2729    -2.1807    -0.5050 H       
  25 H25            6.2887     0.2837     0.0649 H       
  26 H26            3.0339     2.5302    -1.5938 H       
  27 H27            4.5847     4.3588    -2.1380 H       
  28 H28           -3.2619    -0.3481     1.1603 H       
  29 H29           -1.0813     3.1582     0.7256 H       
  30 H30           -0.9615    -2.4591     1.6540 H       
  31 H31           -2.2923    -2.3978     0.4736 H       
  32 H32           -0.6051    -2.4614    -0.0899 H       
@<TRIPOS>BOND
   1    1    2 2
   2    1    4 1
   3    1   20 1
   4    2    3 1
   5    2    6 1
   6    3   18 2
   7    3   21 1
   8    4    5 1
   9    5    6 2
  10    5    7 1
  11    6   10 1
  12    7    8 2
  13    7    9 1
  14    9   11 ar
  15    9   12 ar
  16   10   23 1
  17   10   24 1
  18   11   15 ar
  19   11   25 1
  20   12   13 ar
  21   12   26 1
  22   13   14 ar
  23   13   27 1
  24   14   15 ar
  25   14   17 1
  26   15   16 1
  27   18   19 1
  28   18   28 1
  29   19   20 am
  30   19   22 2
  31   20   29 1
  32   21   30 1
  33   21   31 1
  34   21   32 1

#	End of record

