#	Name: ASD03090204
#	Creating user name:	WinNT
#	Creation time:	15. 06. 2019 20:28

#	Modifying user name:	WinNT
#	Modification time:	15. 06. 2019 20:28

#	Program:	/corina/corina34_cracker 3.40 0067  02.08.2006

@<TRIPOS>MOLECULE
ASD03090204
  53   56    0    0    0
SMALL
NO_CHARGES


@<TRIPOS>ATOM
   1 N1             0.0033     1.1472     1.2738 N.ar    
   2 C2             0.0625    -0.1707     1.2666 C.ar    
   3 C3             1.2499    -0.8251     1.0113 C.ar    
   4 C4             2.4000    -0.0697     0.7579 C.ar    
   5 C5             2.2911     1.3248     0.7755 C.ar    
   6 C6             1.0633     1.8967     1.0401 C.ar    
   7 C7             3.6962    -0.7278     0.4794 C.2     
   8 N8             5.7115    -3.4481    -0.4650 N.pl3   
   9 C9             4.8716    -4.4987    -0.8486 C.ar    
  10 C10            3.6657    -4.2290    -1.4824 C.ar    
  11 C11            2.8378    -5.2681    -1.8603 C.ar    
  12 C12            3.2090    -6.5777    -1.6072 C.ar    
  13 C13            4.4111    -6.8490    -0.9752 C.ar    
  14 C14            5.2449    -5.8137    -0.6011 C.ar    
  15 N15            3.8643    -1.9765     0.0930 N.2     
  16 C16            5.1646    -2.2277    -0.0641 C.2     
  17 N17            5.8479    -1.1423     0.2197 N.2     
  18 N18            4.9158    -0.1524     0.5707 N.pl3   
  19 C19            5.2079     1.2279     0.9654 C.3     
  20 C20            5.2558     2.1017    -0.2615 C.2     
  21 N21            5.5109     3.4196    -0.1407 N.am    
  22 F22            2.3973    -7.5923    -1.9768 F       
  23 C23           -1.1837    -0.9722     1.5416 C.3     
  24 O24           -0.8764    -2.3664     1.4807 O.3     
  25 O25            5.0647     1.6191    -1.3576 O.2     
  26 C26            5.5574     4.2691    -1.3333 C.3     
  27 C27            5.2645     5.7597    -1.1509 C.3     
  28 C28            6.6934     5.2894    -1.4301 C.3     
  29 C29           -1.9957    -3.2196     1.7283 C.3     
  30 C30            4.8122    -8.2754    -0.7006 C.3     
  31 F31            6.0555    -8.2951    -0.0594 F       
  32 F32            3.8543    -8.8794     0.1209 F       
  33 F33            4.8993    -8.9761    -1.9083 F       
  34 H34            1.2911    -1.9043     1.0073 H       
  35 H35            3.1549     1.9446     0.5854 H       
  36 H36            0.9689     2.9724     1.0556 H       
  37 H37            6.6741    -3.5675    -0.4774 H       
  38 H38            3.3754    -3.2076    -1.6794 H       
  39 H39            1.8999    -5.0588    -2.3533 H       
  40 H40            6.1824    -6.0257    -0.1087 H       
  41 H41            4.4278     1.5867     1.6368 H       
  42 H42            6.1708     1.2641     1.4750 H       
  43 H43            5.6637     3.8056     0.7360 H       
  44 H44           -1.5621    -0.7265     2.5339 H       
  45 H45           -1.9410    -0.7341     0.7947 H       
  46 H46            5.2219     3.7998    -2.2581 H       
  47 H47            4.7366     6.2711    -1.9558 H       
  48 H48            5.0372     6.1083    -0.1434 H       
  49 H49            7.4062     5.3286    -0.6064 H       
  50 H50            7.1056     5.4914    -2.4187 H       
  51 H51           -2.7699    -3.0281     0.9853 H       
  52 H52           -1.6801    -4.2609     1.6640 H       
  53 H53           -2.3910    -3.0206     2.7244 H       
@<TRIPOS>BOND
   1    1    2 ar
   2    1    6 ar
   3    2    3 ar
   4    2   23 1
   5    3    4 ar
   6    3   34 1
   7    4    5 ar
   8    4    7 1
   9    5    6 ar
  10    5   35 1
  11    6   36 1
  12    7   15 2
  13    7   18 1
  14    8    9 1
  15    8   16 1
  16    8   37 1
  17    9   10 ar
  18    9   14 ar
  19   10   11 ar
  20   10   38 1
  21   11   12 ar
  22   11   39 1
  23   12   13 ar
  24   12   22 1
  25   13   14 ar
  26   13   30 1
  27   14   40 1
  28   15   16 1
  29   16   17 2
  30   17   18 1
  31   18   19 1
  32   19   20 1
  33   19   41 1
  34   19   42 1
  35   20   21 am
  36   20   25 2
  37   21   26 1
  38   21   43 1
  39   23   24 1
  40   23   44 1
  41   23   45 1
  42   24   29 1
  43   26   27 1
  44   26   28 1
  45   26   46 1
  46   27   28 1
  47   27   47 1
  48   27   48 1
  49   28   49 1
  50   28   50 1
  51   29   51 1
  52   29   52 1
  53   29   53 1
  54   30   31 1
  55   30   32 1
  56   30   33 1

#	End of record

