#	Name: ASD01840019
#	Creating user name:	WinNT
#	Creation time:	15. 06. 2019 19:37

#	Modifying user name:	WinNT
#	Modification time:	15. 06. 2019 19:37

#	Program:	/corina/corina34_cracker 3.40 0067  02.08.2006

@<TRIPOS>MOLECULE
ASD01840019
  44   46    0    0    0
SMALL
NO_CHARGES


@<TRIPOS>ATOM
   1 C1             0.2612     1.7553    -0.9986 C.ar    
   2 C2             0.3844     0.5321    -1.6203 C.ar    
   3 N3             1.4992    -0.1676    -1.4972 N.ar    
   4 N4             2.5001     0.2428    -0.8116 N.ar    
   5 C5             1.3546     2.2266    -0.2368 C.ar    
   6 C6             1.5106     3.4573     0.5163 C.2     
   7 C7             2.4928     1.4120    -0.1672 C.ar    
   8 S8             3.7248     2.1822     0.8224 S.3     
   9 C9             2.7121     3.5787     1.1332 C.2     
  10 C10           -0.7558    -0.0104    -2.4429 C.3     
  11 C11           -0.9998     2.5697    -1.1320 C.3     
  12 N12            0.5181     4.4246     0.5975 N.pl3   
  13 C13            3.1107     4.7243     1.9497 C.2     
  14 O14            2.3409     5.6535     2.1119 O.2     
  15 N15            4.3303     4.7517     2.5228 N.am    
  16 C16            4.7296     5.8995     3.3409 C.3     
  17 C17            6.1275     5.6836     3.8609 C.ar    
  18 C18            6.3236     5.0414     5.0690 C.ar    
  19 C19            7.2132     6.1229     3.1269 C.ar    
  20 C20            8.4963     5.9252     3.6025 C.ar    
  21 C21            8.6946     5.2884     4.8127 C.ar    
  22 C22            7.6078     4.8432     5.5465 C.ar    
  23 S23           10.3299     5.0360     5.4182 S.o2    
  24 C24           10.4145     6.0413     6.9258 C.3     
  25 O25           10.3754     3.6523     5.7384 O.2     
  26 O26           11.1661     5.5820     4.4073 O.2     
  27 F27           10.1772     7.3824     6.6060 F       
  28 F28            9.4471     5.6005     7.8352 F       
  29 F29            7.8007     4.2160     6.7274 F       
  30 H30           -0.6487     0.3214    -3.4757 H       
  31 H31           -0.7429    -1.0998    -2.4080 H       
  32 H32           -1.7005     0.3548    -2.0401 H       
  33 H33           -1.6441     2.3851    -0.2724 H       
  34 H34           -0.7455     3.6287    -1.1747 H       
  35 H35           -1.5218     2.2842    -2.0453 H       
  36 H36           -0.4028     4.1925     0.3997 H       
  37 H37            0.7454     5.3326     0.8521 H       
  38 H38            4.9436     4.0113     2.3936 H       
  39 H39            4.7034     6.8047     2.7342 H       
  40 H40            4.0419     6.0044     4.1800 H       
  41 H41            5.4753     4.6946     5.6404 H       
  42 H42            7.0591     6.6208     2.1809 H       
  43 H43            9.3439     6.2682     3.0278 H       
  44 H44           11.4041     5.9439     7.3724 H       
@<TRIPOS>BOND
   1    1    2 ar
   2    1    5 ar
   3    1   11 1
   4    2    3 ar
   5    2   10 1
   6    3    4 ar
   7    4    7 ar
   8    5    7 ar
   9    5    6 1
  10    6    9 2
  11    6   12 1
  12    7    8 1
  13    8    9 1
  14    9   13 1
  15   10   30 1
  16   10   31 1
  17   10   32 1
  18   11   33 1
  19   11   34 1
  20   11   35 1
  21   12   36 1
  22   12   37 1
  23   13   14 2
  24   13   15 am
  25   15   16 1
  26   15   38 1
  27   16   17 1
  28   16   39 1
  29   16   40 1
  30   17   19 ar
  31   17   18 ar
  32   18   22 ar
  33   18   41 1
  34   19   20 ar
  35   19   42 1
  36   20   21 ar
  37   20   43 1
  38   21   22 ar
  39   21   23 1
  40   22   29 1
  41   23   24 1
  42   23   25 2
  43   23   26 2
  44   24   27 1
  45   24   28 1
  46   24   44 1

#	End of record

