#	Name: ASD09116327
#	Creating user name:	WinNT
#	Creation time:	15. 06. 2019 21:21

#	Modifying user name:	WinNT
#	Modification time:	15. 06. 2019 21:21

#	Program:	/corina/corina34_cracker 3.40 0067  02.08.2006

@<TRIPOS>MOLECULE
ASD09116327
  63   68    0    0    0
SMALL
NO_CHARGES


@<TRIPOS>ATOM
   1 N1            -0.0295     1.4180     0.1428 N.2     
   2 N2            -0.0205     0.0188     0.2617 N.pl3   
   3 C3             1.2222     1.8084     0.1138 C.2     
   4 N4             2.0192     0.7372     0.2075 N.2     
   5 C5             1.2888    -0.3532     0.2977 C.2     
   6 N6             1.7649    -1.6443     0.4096 N.pl3   
   7 C7            -1.1241    -0.8167     0.3290 C.2     
   8 N8             1.6539     3.1290     0.0024 N.pl3   
   9 C9             3.0178     3.4298     0.0967 C.ar    
  10 C10            3.5360     4.5260    -0.5805 C.ar    
  11 C11            3.8524     2.6356     0.8722 C.ar    
  12 C12            5.1977     2.9334     0.9650 C.ar    
  13 C13            5.7154     4.0254     0.2841 C.ar    
  14 C14            4.8815     4.8222    -0.4865 C.ar    
  15 O15            7.0402     4.3182     0.3765 O.3     
  16 C16            9.0091     5.6261    -0.1265 C.3     
  17 C17            7.5052     5.4568    -0.3510 C.3     
  18 N18            9.7225     4.4787    -0.7031 N.3     
  19 C19           11.1777     4.7153    -0.7197 C.3     
  20 C20           11.8379     3.5583     0.0595 C.3     
  21 C21           10.7713     2.4341    -0.0138 C.3     
  22 C22            9.4547     3.2462     0.0683 C.3     
  23 C23           -2.4237    -0.1464     0.2671 C.ar    
  24 C24           -3.4775    -0.5049     1.1187 C.ar    
  25 S25           -3.2395    -1.7797     2.3124 S.3     
  26 C26           -2.8170    -3.1689     1.3134 C.ar    
  27 C27           -1.6827    -3.1321     0.4969 C.ar    
  28 N28           -0.8644    -2.0532     0.4304 N.2     
  29 C29           -3.6179    -4.2978     1.3440 C.ar    
  30 C30           -3.3013    -5.3982     0.5649 C.ar    
  31 C31           -2.1834    -5.3710    -0.2471 C.ar    
  32 C32           -1.3767    -4.2514    -0.2862 C.ar    
  33 C33           -2.6261     0.8781    -0.6639 C.ar    
  34 C34           -4.6998     0.1401     1.0282 C.ar    
  35 C35           -3.8473     1.5149    -0.7410 C.ar    
  36 C36           -4.8836     1.1488     0.0995 C.ar    
  37 H37            2.7207    -1.8090     0.4270 H       
  38 H38            1.1437    -2.3867     0.4709 H       
  39 H39            1.0093     3.8396    -0.1406 H       
  40 H40            2.8869     5.1463    -1.1808 H       
  41 H41            3.4494     1.7856     1.4027 H       
  42 H42            5.8468     2.3161     1.5683 H       
  43 H43            5.2854     5.6722    -1.0164 H       
  44 H44            9.3474     6.5436    -0.6081 H       
  45 H45            9.2130     5.6806     0.9429 H       
  46 H46            7.3104     5.3134    -1.4138 H       
  47 H47            6.9833     6.3483    -0.0030 H       
  48 H48           11.5402     4.7245    -1.7476 H       
  49 H49           11.4045     5.6652    -0.2357 H       
  50 H50           12.7622     3.2449    -0.4259 H       
  51 H51           12.0233     3.8468     1.0941 H       
  52 H52           10.8382     1.8933    -0.9578 H       
  53 H53           10.8633     1.7529     0.8320 H       
  54 H54            9.2234     3.4902     1.1052 H       
  55 H55            8.6351     2.6868    -0.3827 H       
  56 H56           -4.4921    -4.3206     1.9778 H       
  57 H57           -3.9277    -6.2776     0.5923 H       
  58 H58           -1.9395    -6.2303    -0.8542 H       
  59 H59           -0.5051    -4.2391    -0.9238 H       
  60 H60           -1.8237     1.1712    -1.3247 H       
  61 H61           -5.5101    -0.1450     1.6827 H       
  62 H62           -3.9954     2.3052    -1.4620 H       
  63 H63           -5.8373     1.6510     0.0302 H       
@<TRIPOS>BOND
   1    1    2 1
   2    1    3 2
   3    2    7 1
   4    2    5 1
   5    3    4 1
   6    3    8 1
   7    4    5 2
   8    5    6 1
   9    6   37 1
  10    6   38 1
  11    7   23 1
  12    7   28 2
  13    8    9 1
  14    8   39 1
  15    9   10 ar
  16    9   11 ar
  17   10   14 ar
  18   10   40 1
  19   11   12 ar
  20   11   41 1
  21   12   13 ar
  22   12   42 1
  23   13   14 ar
  24   13   15 1
  25   14   43 1
  26   15   17 1
  27   16   17 1
  28   16   18 1
  29   16   44 1
  30   16   45 1
  31   17   46 1
  32   17   47 1
  33   18   19 1
  34   18   22 1
  35   19   20 1
  36   19   48 1
  37   19   49 1
  38   20   21 1
  39   20   50 1
  40   20   51 1
  41   21   22 1
  42   21   52 1
  43   21   53 1
  44   22   54 1
  45   22   55 1
  46   23   24 ar
  47   23   33 ar
  48   24   25 1
  49   24   34 ar
  50   25   26 1
  51   26   27 ar
  52   26   29 ar
  53   27   28 1
  54   27   32 ar
  55   29   30 ar
  56   29   56 1
  57   30   31 ar
  58   30   57 1
  59   31   32 ar
  60   31   58 1
  61   32   59 1
  62   33   35 ar
  63   33   60 1
  64   34   36 ar
  65   34   61 1
  66   35   36 ar
  67   35   62 1
  68   36   63 1

#	End of record

