#	Name: ASD01230398
#	Creating user name:	WinNT
#	Creation time:	15. 06. 2019 19:14

#	Modifying user name:	WinNT
#	Modification time:	15. 06. 2019 19:14

#	Program:	/corina/corina34_cracker 3.40 0067  02.08.2006

@<TRIPOS>MOLECULE
ASD01230398
  41   43    0    0    0
SMALL
NO_CHARGES


@<TRIPOS>ATOM
   1 C1             0.2085     1.1124    -0.3953 C.ar    
   2 C2             0.0341    -0.1996    -0.8585 C.ar    
   3 C3             1.0803    -0.8160    -1.5444 C.ar    
   4 C4             2.2524    -0.1014    -1.7392 C.ar    
   5 C5             2.3504     1.1879    -1.2535 C.ar    
   6 N6             1.3472     1.7516    -0.6069 N.ar    
   7 N7            -0.8224     1.7466     0.2847 N.pl3   
   8 C8             3.4100    -0.7265    -2.4742 C.3     
   9 C9            -1.2407    -0.9194    -0.6226 C.ar    
  10 C10           -1.7911    -0.9642     0.6575 C.ar    
  11 C11           -2.9770    -1.6340     0.8736 C.ar    
  12 C12           -3.6225    -2.2638    -0.1821 C.ar    
  13 C13           -3.0769    -2.2210    -1.4582 C.ar    
  14 C14           -1.8942    -1.5479    -1.6817 C.ar    
  15 O15           -4.7904    -2.9237     0.0341 O.3     
  16 C16           -4.7288    -4.2473     0.3369 C.ar    
  17 C17           -5.8963    -4.9861     0.4591 C.ar    
  18 C18           -5.8312    -6.3352     0.7679 C.ar    
  19 C19           -4.5966    -6.9451     0.9544 C.ar    
  20 C20           -3.4342    -6.2058     0.8324 C.ar    
  21 C21           -3.4980    -4.8611     0.5182 C.ar    
  22 O22           -6.9741    -7.0616     0.8887 O.3     
  23 C23           -8.2074    -6.3694     0.6840 C.3     
  24 F24           -4.5317    -8.2605     1.2556 F       
  25 H25            0.9801    -1.8256    -1.9145 H       
  26 H26            3.2637     1.7441    -1.4051 H       
  27 H27           -1.6600     1.2822     0.4381 H       
  28 H28           -0.7050     2.6542     0.6065 H       
  29 H29            3.3206    -0.5149    -3.5398 H       
  30 H30            4.3454    -0.3117    -2.0987 H       
  31 H31            3.4012    -1.8049    -2.3159 H       
  32 H32           -1.2890    -0.4750     1.4792 H       
  33 H33           -3.4038    -1.6690     1.8650 H       
  34 H34           -3.5811    -2.7122    -2.2773 H       
  35 H35           -1.4724    -1.5115    -2.6752 H       
  36 H36           -6.8550    -4.5103     0.3141 H       
  37 H37           -2.4752    -6.6807     0.9779 H       
  38 H38           -2.5888    -4.2866     0.4186 H       
  39 H39           -8.2287    -5.9553    -0.3241 H       
  40 H40           -9.0386    -7.0632     0.8095 H       
  41 H41           -8.2955    -5.5616     1.4105 H       
@<TRIPOS>BOND
   1    1    2 ar
   2    1    6 ar
   3    1    7 1
   4    2    3 ar
   5    2    9 1
   6    3    4 ar
   7    3   25 1
   8    4    5 ar
   9    4    8 1
  10    5    6 ar
  11    5   26 1
  12    7   27 1
  13    7   28 1
  14    8   29 1
  15    8   30 1
  16    8   31 1
  17    9   10 ar
  18    9   14 ar
  19   10   11 ar
  20   10   32 1
  21   11   12 ar
  22   11   33 1
  23   12   13 ar
  24   12   15 1
  25   13   14 ar
  26   13   34 1
  27   14   35 1
  28   15   16 1
  29   16   17 ar
  30   16   21 ar
  31   17   18 ar
  32   17   36 1
  33   18   19 ar
  34   18   22 1
  35   19   20 ar
  36   19   24 1
  37   20   21 ar
  38   20   37 1
  39   21   38 1
  40   22   23 1
  41   23   39 1
  42   23   40 1
  43   23   41 1

#	End of record

