#	Name: ASD01152547
#	Creating user name:	WinNT
#	Creation time:	15. 06. 2019 19:06

#	Modifying user name:	WinNT
#	Modification time:	15. 06. 2019 19:06

#	Program:	/corina/corina34_cracker 3.40 0067  02.08.2006

@<TRIPOS>MOLECULE
ASD01152547
  54   56    0    0    0
SMALL
NO_CHARGES


@<TRIPOS>ATOM
   1 C1             0.7842     1.0767     0.0621 C.2     
   2 N2             0.5749    -0.2122     0.0223 N.2     
   3 N3            -0.7131    -0.7453     0.0682 N.am    
   4 C4            -1.8142     0.0139    -0.0573 C.2     
   5 C5            -1.6931     1.4848    -0.3792 C.3     
   6 C6            -0.3737     1.9746     0.1889 C.2     
   7 C7            -1.7172     1.6870    -1.8956 C.3     
   8 O8            -0.2783     3.0631     0.7174 O.2     
   9 C9            -0.8642    -2.1250     0.2516 C.ar    
  10 O10           -2.9104    -0.4839     0.0880 O.2     
  11 C11           -1.7197     3.1617    -2.2058 C.ar    
  12 C12           -1.0674    -2.6384     1.5243 C.ar    
  13 C13           -0.8166    -2.9828    -0.8430 C.ar    
  14 C14           -0.9658    -4.3455    -0.6612 C.ar    
  15 C15           -1.1630    -4.8585     0.6069 C.ar    
  16 C16           -1.2167    -4.0065     1.7022 C.ar    
  17 C17           -0.5244     3.8346    -2.3670 C.ar    
  18 C18           -2.9191     3.8382    -2.3343 C.ar    
  19 C19           -2.9264     5.1911    -2.6197 C.ar    
  20 C20           -0.5271     5.1936    -2.6532 C.ar    
  21 C21           -1.7339     5.8718    -2.7775 C.ar    
  22 Cl22          -1.7435     7.5702    -3.1370 Cl      
  23 N23            0.6807     5.8774    -2.8164 N.3     
  24 C24            1.4988     5.7988    -1.5989 C.3     
  25 C25            1.4194     5.3707    -3.9807 C.3     
  26 F26           -0.6248    -2.4840    -2.0839 F       
  27 N27           -1.4222    -4.5276     2.9856 N.am    
  28 C28           -2.1549    -3.8390     3.8831 C.2     
  29 O29           -2.5651    -2.7310     3.6088 O.2     
  30 C30           -2.4645    -4.4457     5.2274 C.3     
  31 O31            2.0458     1.5770    -0.0064 O.3     
  32 C32            3.1125     0.6333    -0.1225 C.3     
  33 H33           -2.5163     2.0321     0.0799 H       
  34 H34           -0.8349     1.2242    -2.3379 H       
  35 H35           -2.6147     1.2271    -2.3093 H       
  36 H36           -1.1089    -1.9746     2.3752 H       
  37 H37           -0.9286    -5.0101    -1.5118 H       
  38 H38           -1.2797    -5.9232     0.7458 H       
  39 H39            0.4116     3.3045    -2.2701 H       
  40 H40           -3.8522     3.3084    -2.2117 H       
  41 H41           -3.8647     5.7163    -2.7197 H       
  42 H42            1.7160     4.7546    -1.3739 H       
  43 H43            2.4328     6.3391    -1.7532 H       
  44 H44            0.9547     6.2443    -0.7661 H       
  45 H45            0.8175     5.5051    -4.8795 H       
  46 H46            2.3551     5.9201    -4.0845 H       
  47 H47            1.6337     4.3110    -3.8420 H       
  48 H48           -1.0373    -5.3841     3.2286 H       
  49 H49           -2.0159    -5.4371     5.2905 H       
  50 H50           -2.0569    -3.8117     6.0147 H       
  51 H51           -3.5446    -4.5272     5.3492 H       
  52 H52            4.0637     1.1638    -0.1677 H       
  53 H53            3.1070    -0.0296     0.7428 H       
  54 H54            2.9807     0.0458    -1.0311 H       
@<TRIPOS>BOND
   1    1    2 2
   2    1   31 1
   3    1    6 1
   4    2    3 1
   5    3    4 am
   6    3    9 1
   7    4    5 1
   8    4   10 2
   9    5    6 1
  10    5    7 1
  11    5   33 1
  12    6    8 2
  13    7   11 1
  14    7   34 1
  15    7   35 1
  16    9   12 ar
  17    9   13 ar
  18   11   17 ar
  19   11   18 ar
  20   12   16 ar
  21   12   36 1
  22   13   14 ar
  23   13   26 1
  24   14   15 ar
  25   14   37 1
  26   15   16 ar
  27   15   38 1
  28   16   27 1
  29   17   20 ar
  30   17   39 1
  31   18   19 ar
  32   18   40 1
  33   19   21 ar
  34   19   41 1
  35   20   21 ar
  36   20   23 1
  37   21   22 1
  38   23   24 1
  39   23   25 1
  40   24   42 1
  41   24   43 1
  42   24   44 1
  43   25   45 1
  44   25   46 1
  45   25   47 1
  46   27   28 am
  47   27   48 1
  48   28   29 2
  49   28   30 1
  50   30   49 1
  51   30   50 1
  52   30   51 1
  53   31   32 1
  54   32   52 1
  55   32   53 1
  56   32   54 1

#	End of record

