#	Name: ASD01917082
#	Creating user name:	WinNT
#	Creation time:	15. 06. 2019 20:08

#	Modifying user name:	WinNT
#	Modification time:	15. 06. 2019 20:08

#	Program:	/corina/corina34_cracker 3.40 0067  02.08.2006

@<TRIPOS>MOLECULE
ASD01917082
  33   35    0    0    0
SMALL
NO_CHARGES


@<TRIPOS>ATOM
   1 C1             0.1813     1.7408    -0.0214 C.2     
   2 O2            -0.0036     0.5473    -0.0150 O.2     
   3 C3             1.5863     2.2857    -0.0299 C.3     
   4 N4             2.5410     1.1745    -0.0286 N.pl3   
   5 N5             3.0576     0.5084    -1.1517 N.2     
   6 C6             3.8764    -0.4189    -0.7038 C.2     
   7 N7             3.8998    -0.3690     0.6327 N.2     
   8 C8             3.1040     0.5908     1.0550 C.2     
   9 C9             2.8646     0.9640     2.4665 C.ar    
  10 C10            1.7213     1.6833     2.8161 C.ar    
  11 C11            1.5028     2.0288     4.1332 C.ar    
  12 C12            2.4164     1.6627     5.1089 C.ar    
  13 C13            3.5538     0.9485     4.7667 C.ar    
  14 C14            3.7784     0.5928     3.4533 C.ar    
  15 F15            2.1979     2.0035     6.3978 F       
  16 C16            4.6483    -1.3671    -1.5449 C.ar    
  17 C17            4.5378    -1.3190    -2.9331 C.ar    
  18 C18            5.2576    -2.2021    -3.7114 C.ar    
  19 C19            6.0890    -3.1360    -3.1145 C.ar    
  20 C20            6.2017    -3.1872    -1.7345 C.ar    
  21 C21            5.4899    -2.3041    -0.9490 C.ar    
  22 F22            6.7914    -3.9995    -3.8802 F       
  23 Cl23          -1.1716     2.8286    -0.0281 Cl      
  24 H24            1.7355     2.8919    -0.9234 H       
  25 H25            1.7430     2.9003     0.8566 H       
  26 H26            1.0089     1.9694     2.0564 H       
  27 H27            0.6183     2.5860     4.4048 H       
  28 H28            4.2630     0.6658     5.5306 H       
  29 H29            4.6624     0.0318     3.1884 H       
  30 H30            3.8895    -0.5918    -3.3992 H       
  31 H31            5.1726    -2.1656    -4.7874 H       
  32 H32            6.8506    -3.9170    -1.2732 H       
  33 H33            5.5818    -2.3418     0.1265 H       
@<TRIPOS>BOND
   1    1    2 2
   2    1    3 1
   3    1   23 1
   4    3    4 1
   5    3   24 1
   6    3   25 1
   7    4    5 1
   8    4    8 1
   9    5    6 2
  10    6    7 1
  11    6   16 1
  12    7    8 2
  13    8    9 1
  14    9   10 ar
  15    9   14 ar
  16   10   11 ar
  17   10   26 1
  18   11   12 ar
  19   11   27 1
  20   12   13 ar
  21   12   15 1
  22   13   14 ar
  23   13   28 1
  24   14   29 1
  25   16   17 ar
  26   16   21 ar
  27   17   18 ar
  28   17   30 1
  29   18   19 ar
  30   18   31 1
  31   19   20 ar
  32   19   22 1
  33   20   21 ar
  34   20   32 1
  35   21   33 1

#	End of record

