#	Name: ASD04880394
#	Creating user name:	WinNT
#	Creation time:	15. 06. 2019 20:53

#	Modifying user name:	WinNT
#	Modification time:	15. 06. 2019 20:53

#	Program:	/corina/corina34_cracker 3.40 0067  02.08.2006

@<TRIPOS>MOLECULE
ASD04880394
  41   43    0    0    0
SMALL
NO_CHARGES


@<TRIPOS>ATOM
   1 C1            -0.0091     1.3950     0.0901 C.ar    
   2 C2             1.1799     2.1010     0.1180 C.ar    
   3 C3             2.3855     1.4309     0.0816 C.ar    
   4 C4             2.4049     0.0367     0.0164 C.ar    
   5 C5             1.2025    -0.6719    -0.0116 C.ar    
   6 C6             0.0018     0.0106     0.0254 C.ar    
   7 C7             3.6934    -0.6863    -0.0233 C.2     
   8 O8             3.7119    -1.9001     0.0484 O.2     
   9 N9             4.8478    -0.0003    -0.1389 N.am    
  10 C10            6.1985    -0.5802    -0.0698 C.3     
  11 N11            4.9570     1.3727    -0.3494 N.2     
  12 C12            6.1713     1.7984    -0.4266 C.2     
  13 C13            7.1250     0.6367    -0.2621 C.3     
  14 F14           -1.1634    -0.6726    -0.0011 F       
  15 C15            6.5684     3.1999    -0.6452 C.ar    
  16 C16            5.5940     4.1770    -0.8949 C.ar    
  17 C17            5.9753     5.4915    -1.0987 C.ar    
  18 C18            7.3174     5.8401    -1.0558 C.ar    
  19 C19            8.2848     4.8732    -0.8084 C.ar    
  20 C20            7.9172     3.5622    -0.5987 C.ar    
  21 O21            7.6876     7.1315    -1.2568 O.3     
  22 C22            9.0855     7.4221    -1.1992 C.3     
  23 O23            4.2806     3.8342    -0.9371 O.3     
  24 C24            3.3544     4.8582    -1.3054 C.3     
  25 H25           -0.9498     1.9244     0.1233 H       
  26 H26            1.1646     3.1797     0.1680 H       
  27 H27            3.3127     1.9843     0.1031 H       
  28 H28            1.2109    -1.7507    -0.0623 H       
  29 H29            6.3684    -1.0417     0.9030 H       
  30 H30            6.3461    -1.3050    -0.8704 H       
  31 H31            7.7550     0.7807     0.6157 H       
  32 H32            7.7358     0.5139    -1.1564 H       
  33 H33            5.2276     6.2466    -1.2917 H       
  34 H34            9.3279     5.1514    -0.7766 H       
  35 H35            8.6716     2.8135    -0.4067 H       
  36 H36            9.4715     7.1566    -0.2150 H       
  37 H37            9.6083     6.8455    -1.9622 H       
  38 H38            9.2431     8.4861    -1.3763 H       
  39 H39            3.4792     5.7158    -0.6444 H       
  40 H40            3.5404     5.1631    -2.3352 H       
  41 H41            2.3371     4.4767    -1.2174 H       
@<TRIPOS>BOND
   1    1    2 ar
   2    1    6 ar
   3    1   25 1
   4    2    3 ar
   5    2   26 1
   6    3    4 ar
   7    3   27 1
   8    4    5 ar
   9    4    7 1
  10    5    6 ar
  11    5   28 1
  12    6   14 1
  13    7    8 2
  14    7    9 am
  15    9   10 1
  16    9   11 1
  17   10   13 1
  18   10   29 1
  19   10   30 1
  20   11   12 2
  21   12   13 1
  22   12   15 1
  23   13   31 1
  24   13   32 1
  25   15   16 ar
  26   15   20 ar
  27   16   17 ar
  28   16   23 1
  29   17   18 ar
  30   17   33 1
  31   18   19 ar
  32   18   21 1
  33   19   20 ar
  34   19   34 1
  35   20   35 1
  36   21   22 1
  37   22   36 1
  38   22   37 1
  39   22   38 1
  40   23   24 1
  41   24   39 1
  42   24   40 1
  43   24   41 1

#	End of record

