#	Name: ASD01816976
#	Creating user name:	WinNT
#	Creation time:	15. 06. 2019 19:36

#	Modifying user name:	WinNT
#	Modification time:	15. 06. 2019 19:36

#	Program:	/corina/corina34_cracker 3.40 0067  02.08.2006

@<TRIPOS>MOLECULE
ASD01816976
  61   66    0    0    0
SMALL
NO_CHARGES


@<TRIPOS>ATOM
   1 C1            -0.0168     1.3862     0.0097 C.ar    
   2 C2             0.0021    -0.0041     0.0020 C.ar    
   3 N3             1.1274    -0.6793    -0.0123 N.ar    
   4 C4             2.3109    -0.0604    -0.0203 C.ar    
   5 C5             2.3594     1.3548    -0.0132 C.ar    
   6 C6             1.1626     2.0821     0.0021 C.ar    
   7 C7             3.5128    -0.7990    -0.0362 C.ar    
   8 C8             4.7176    -0.1801    -0.0444 C.ar    
   9 C9             4.8189     1.2191    -0.0374 C.ar    
  10 C10            3.6595     2.0169    -0.0221 C.ar    
  11 C11            6.1194     1.9009    -0.0457 C.2     
  12 N12            6.1139     3.2542    -0.0381 N.am    
  13 C13            4.9427     3.9377    -0.0228 C.2     
  14 N14            3.7793     3.3548    -0.0160 N.2     
  15 O15            7.1626     1.2728    -0.0587 O.2     
  16 C16            3.4551    -2.3049    -0.0437 C.3     
  17 C17            3.2981    -2.7945    -1.4602 C.ar    
  18 C18            4.4164    -3.0672    -2.2351 C.ar    
  19 C19            4.2290    -3.5155    -3.5312 C.ar    
  20 C20            2.9308    -3.6768    -4.0106 C.ar    
  21 N21            1.8877    -3.4048    -3.2370 N.ar    
  22 C22            2.0382    -2.9819    -1.9983 C.ar    
  23 C23            7.3828     3.9864    -0.0458 C.3     
  24 C24            7.4525     4.8730    -1.2908 C.3     
  25 C25            7.4759     4.8589     1.2076 C.3     
  26 C26            8.8011     5.6235     1.1995 C.3     
  27 C27            8.8707     6.5102    -0.0455 C.3     
  28 C28            8.7777     5.6377    -1.2988 C.3     
  29 O29            7.4108     4.0308     2.3703 O.3     
  30 C30            2.7131    -4.1558    -5.3971 C.ar    
  31 C31            1.4164    -4.3204    -5.8861 C.ar    
  32 C32            1.2210    -4.7670    -7.1803 C.ar    
  33 C33            2.3070    -5.0498    -7.9875 C.ar    
  34 C34            3.5945    -4.8880    -7.5068 C.ar    
  35 C35            3.8027    -4.4380    -6.2191 C.ar    
  36 F36            0.3549    -4.0445    -5.0972 F       
  37 H37           -0.9582     1.9154     0.0170 H       
  38 H38           -0.9341    -0.5426     0.0084 H       
  39 H39            1.1697     3.1621     0.0075 H       
  40 H40            5.6184    -0.7758    -0.0562 H       
  41 H41            4.9771     5.0171    -0.0163 H       
  42 H42            4.3761    -2.7059     0.3794 H       
  43 H43            2.6059    -2.6389     0.5524 H       
  44 H44            5.4108    -2.9322    -1.8359 H       
  45 H45            5.0772    -3.7369    -4.1620 H       
  46 H46            1.1657    -2.7704    -1.3980 H       
  47 H47            8.2111     3.2779    -0.0576 H       
  48 H48            7.3862     4.2514    -2.1837 H       
  49 H49            6.6242     5.5815    -1.2790 H       
  50 H50            6.6476     5.5674     1.2193 H       
  51 H51            8.8673     6.2451     2.0924 H       
  52 H52            9.6293     4.9150     1.1877 H       
  53 H53            8.0425     7.2187    -0.0337 H       
  54 H54            9.8148     7.0549    -0.0512 H       
  55 H55            9.6059     4.9291    -1.3106 H       
  56 H56            8.8273     6.2693    -2.1858 H       
  57 H57            7.4641     4.5182     3.2038 H       
  58 H58            0.2184    -4.8955    -7.5608 H       
  59 H59            2.1500    -5.3987    -8.9974 H       
  60 H60            4.4386    -5.1110    -8.1424 H       
  61 H61            4.8084    -4.3122    -5.8462 H       
@<TRIPOS>BOND
   1    1    2 ar
   2    1    6 ar
   3    1   37 1
   4    2    3 ar
   5    2   38 1
   6    3    4 ar
   7    4    5 ar
   8    4    7 ar
   9    5    6 ar
  10    5   10 ar
  11    6   39 1
  12    7    8 ar
  13    7   16 1
  14    8    9 ar
  15    8   40 1
  16    9   10 ar
  17    9   11 1
  18   10   14 1
  19   11   12 am
  20   11   15 2
  21   12   13 1
  22   12   23 1
  23   13   14 2
  24   13   41 1
  25   16   17 1
  26   16   42 1
  27   16   43 1
  28   17   18 ar
  29   17   22 ar
  30   18   19 ar
  31   18   44 1
  32   19   20 ar
  33   19   45 1
  34   20   21 ar
  35   20   30 1
  36   21   22 ar
  37   22   46 1
  38   23   24 1
  39   23   25 1
  40   23   47 1
  41   24   28 1
  42   24   48 1
  43   24   49 1
  44   25   26 1
  45   25   29 1
  46   25   50 1
  47   26   27 1
  48   26   51 1
  49   26   52 1
  50   27   28 1
  51   27   53 1
  52   27   54 1
  53   28   55 1
  54   28   56 1
  55   29   57 1
  56   30   31 ar
  57   30   35 ar
  58   31   32 ar
  59   31   36 1
  60   32   33 ar
  61   32   58 1
  62   33   34 ar
  63   33   59 1
  64   34   35 ar
  65   34   60 1
  66   35   61 1

#	End of record

