#	Name: ASD03330932
#	Creating user name:	WinNT
#	Creation time:	15. 06. 2019 20:38

#	Modifying user name:	WinNT
#	Modification time:	15. 06. 2019 20:38

#	Program:	/corina/corina34_cracker 3.40 0067  02.08.2006

@<TRIPOS>MOLECULE
ASD03330932
  68   71    0    0    0
SMALL
NO_CHARGES


@<TRIPOS>ATOM
   1 N1            -0.8204     1.7204    -0.3874 N.pl3   
   2 C2            -0.6634     0.4005    -0.1013 C.2     
   3 C3             0.6354    -0.2701     0.2629 C.3     
   4 N4             1.3229     0.5336     1.2856 N.3     
   5 C5             2.1867     1.5447     0.6731 C.3     
   6 C6             1.5853     2.0583    -0.6320 C.3     
   7 C7             0.2392     2.7324    -0.3527 C.3     
   8 C8            -2.1348     1.9181    -0.6958 C.2     
   9 N9            -2.7673     0.7733    -0.5873 N.2     
  10 C10           -1.8877    -0.1838    -0.2190 C.2     
  11 C11           -2.1976    -1.6055     0.0134 C.2     
  12 O12           -1.3148    -2.3744     0.3431 O.2     
  13 N13           -3.4594    -2.0539    -0.1395 N.am    
  14 C14            2.0847    -0.3231     2.2041 C.3     
  15 C15           -4.9966    -3.8483    -0.6930 C.2     
  16 C16           -3.7675    -3.4674     0.0915 C.3     
  17 C17           -4.0228    -3.6967     1.5825 C.3     
  18 C18           -4.4359    -5.1520     1.8113 C.3     
  19 O19           -5.8396    -3.0129    -0.9427 O.2     
  20 O20           -5.0731    -7.2893    -2.7998 O.3     
  21 C21           -6.0193    -6.2580    -3.0911 C.3     
  22 C22           -6.3972    -5.5380    -1.7915 C.3     
  23 N23           -5.1589    -5.1173    -1.1170 N.am    
  24 C24           -4.1029    -6.1229    -0.9196 C.3     
  25 C25           -3.8367    -6.8143    -2.2617 C.3     
  26 C26           -2.7454    -3.3992     2.3703 C.3     
  27 C27           -5.1425    -2.7681     2.0569 C.3     
  28 C28           -2.7451     3.2075    -1.0865 C.ar    
  29 C29           -3.5962     3.2744    -2.1929 C.ar    
  30 C30           -4.1632     4.4827    -2.5519 C.ar    
  31 C31           -3.8897     5.6229    -1.8187 C.ar    
  32 C32           -3.0468     5.5627    -0.7219 C.ar    
  33 C33           -2.4782     4.3608    -0.3489 C.ar    
  34 F34           -3.8636     2.1611    -2.9100 F       
  35 Cl35          -2.7094     7.0004     0.1907 Cl      
  36 H36            0.4332    -1.2660     0.6573 H       
  37 H37            1.2657    -0.3490    -0.6229 H       
  38 H38            2.3075     2.3788     1.3644 H       
  39 H39            3.1632     1.1055     0.4690 H       
  40 H40            2.2650     2.7802    -1.0848 H       
  41 H41            1.4371     1.2229    -1.3162 H       
  42 H42            0.0457     3.4889    -1.1132 H       
  43 H43            0.2635     3.2009     0.6312 H       
  44 H44           -4.1635    -1.4407    -0.4025 H       
  45 H45            2.7822    -0.9370     1.6341 H       
  46 H46            2.6389     0.2996     2.9063 H       
  47 H47            1.3984    -0.9677     2.7532 H       
  48 H48           -2.9259    -4.0802    -0.2315 H       
  49 H49           -3.6354    -5.8133     1.4796 H       
  50 H50           -4.6242    -5.3136     2.8727 H       
  51 H51           -5.3422    -5.3658     1.2448 H       
  52 H52           -5.5778    -5.5449    -3.7872 H       
  53 H53           -6.9117    -6.6978    -3.5364 H       
  54 H54           -7.0061    -4.6633    -2.0201 H       
  55 H55           -6.9552    -6.2156    -1.1453 H       
  56 H56           -3.1924    -5.6355    -0.5709 H       
  57 H57           -4.4299    -6.8594    -0.1857 H       
  58 H58           -3.1589    -7.6544    -2.1103 H       
  59 H59           -3.3873    -6.1032    -2.9548 H       
  60 H60           -2.4511    -2.3624     2.2073 H       
  61 H61           -2.9273    -3.5625     3.4325 H       
  62 H62           -1.9477    -4.0607     2.0323 H       
  63 H63           -6.0525    -2.9800     1.4957 H       
  64 H64           -5.3243    -2.9314     3.1191 H       
  65 H65           -4.8482    -1.7313     1.8939 H       
  66 H66           -4.8210     4.5365    -3.4068 H       
  67 H67           -4.3352     6.5647    -2.1032 H       
  68 H68           -1.8249     4.3148     0.5099 H       
@<TRIPOS>BOND
   1    1    2 1
   2    1    7 1
   3    1    8 1
   4    2    3 1
   5    2   10 2
   6    3    4 1
   7    3   36 1
   8    3   37 1
   9    4    5 1
  10    4   14 1
  11    5    6 1
  12    5   38 1
  13    5   39 1
  14    6    7 1
  15    6   40 1
  16    6   41 1
  17    7   42 1
  18    7   43 1
  19    8    9 2
  20    8   28 1
  21    9   10 1
  22   10   11 1
  23   11   12 2
  24   11   13 am
  25   13   16 1
  26   13   44 1
  27   14   45 1
  28   14   46 1
  29   14   47 1
  30   15   19 2
  31   15   23 am
  32   15   16 1
  33   16   17 1
  34   16   48 1
  35   17   18 1
  36   17   26 1
  37   17   27 1
  38   18   49 1
  39   18   50 1
  40   18   51 1
  41   20   21 1
  42   20   25 1
  43   21   22 1
  44   21   52 1
  45   21   53 1
  46   22   23 1
  47   22   54 1
  48   22   55 1
  49   23   24 1
  50   24   25 1
  51   24   56 1
  52   24   57 1
  53   25   58 1
  54   25   59 1
  55   26   60 1
  56   26   61 1
  57   26   62 1
  58   27   63 1
  59   27   64 1
  60   27   65 1
  61   28   29 ar
  62   28   33 ar
  63   29   30 ar
  64   29   34 1
  65   30   31 ar
  66   30   66 1
  67   31   32 ar
  68   31   67 1
  69   32   33 ar
  70   32   35 1
  71   33   68 1

#	End of record

