#	Name: ASD03331684
#	Creating user name:	WinNT
#	Creation time:	15. 06. 2019 20:39

#	Modifying user name:	WinNT
#	Modification time:	15. 06. 2019 20:39

#	Program:	/corina/corina34_cracker 3.40 0067  02.08.2006

@<TRIPOS>MOLECULE
ASD03331684
  48   51    0    0    0
SMALL
NO_CHARGES


@<TRIPOS>ATOM
   1 C1             2.0461     0.2633    -0.4178 C.ar    
   2 C2             1.0344    -0.4382     0.2000 C.ar    
   3 C3             0.2379     0.1758     1.1581 C.ar    
   4 C4             0.4457     1.4926     1.5054 C.ar    
   5 C5             2.2688     1.5986    -0.0763 C.ar    
   6 C6             3.2260     2.6158    -0.5180 C.2     
   7 C7             1.4615     2.2195     0.8942 C.ar    
   8 N8             1.9061     3.5172     1.0221 N.pl3   
   9 C9             2.9573     3.7344     0.1738 C.2     
  10 S10            3.8294     5.2570     0.0131 S.o2    
  11 O11            3.1908     6.1792     0.8853 O.2     
  12 O12            5.2118     4.9383     0.0959 O.2     
  13 N13            3.5687     5.8111    -1.5255 N.am    
  14 C14            2.2170     6.1823    -1.9512 C.3     
  15 C15            2.3378     7.1422    -5.5989 C.ar    
  16 C16            2.2656     6.3895    -4.4444 C.ar    
  17 C17            2.2956     7.0097    -3.2083 C.ar    
  18 C18            2.3970     8.3866    -3.1217 C.ar    
  19 C19            2.4689     9.1493    -4.2696 C.ar    
  20 C20            2.4396     8.5298    -5.5177 C.ar    
  21 C21            2.5180     9.3442    -6.7550 C.ar    
  22 C22            2.6198    10.7322    -6.6718 C.ar    
  23 C23            2.6930    11.4872    -7.8225 C.ar    
  24 C24            2.6654    10.8653    -9.0663 C.ar    
  25 C25            2.5638     9.4807    -9.1512 C.ar    
  26 C26            2.4957     8.7221    -8.0026 C.ar    
  27 C27            4.3073     2.4398    -1.5528 C.3     
  28 S28            2.7585    11.8326   -10.5360 S.3     
  29 Cl29           0.7530    -2.0986    -0.2215 Cl      
  30 H30            2.6665    -0.2182    -1.1592 H       
  31 H31           -0.5524    -0.3846     1.6353 H       
  32 H32           -0.1799     1.9600     2.2514 H       
  33 H33            1.5302     4.1782     1.6243 H       
  34 H34            4.3110     5.8900    -2.1449 H       
  35 H35            1.6367     5.2803    -2.1456 H       
  36 H36            1.7346     6.7620    -1.1642 H       
  37 H37            2.3187     6.6566    -6.5634 H       
  38 H38            2.1863     5.3142    -4.5061 H       
  39 H39            2.4196     8.8656    -2.1540 H       
  40 H40            2.5477    10.2243    -4.2008 H       
  41 H41            2.6410    11.2155    -5.7062 H       
  42 H42            2.7716    12.5624    -7.7584 H       
  43 H43            2.5425     8.9995   -10.1179 H       
  44 H44            2.4210     7.6467    -8.0689 H       
  45 H45            3.8923     2.6148    -2.5454 H       
  46 H46            5.1104     3.1522    -1.3640 H       
  47 H47            4.7014     1.4250    -1.4975 H       
  48 H48            4.0813    11.9021   -10.7692 H       
@<TRIPOS>BOND
   1    1    2 ar
   2    1    5 ar
   3    1   30 1
   4    2    3 ar
   5    2   29 1
   6    3    4 ar
   7    3   31 1
   8    4    7 ar
   9    4   32 1
  10    5    7 ar
  11    5    6 1
  12    6    9 2
  13    6   27 1
  14    7    8 1
  15    8    9 1
  16    8   33 1
  17    9   10 1
  18   10   11 2
  19   10   12 2
  20   10   13 am
  21   13   14 1
  22   13   34 1
  23   14   17 1
  24   14   35 1
  25   14   36 1
  26   15   16 ar
  27   15   20 ar
  28   15   37 1
  29   16   17 ar
  30   16   38 1
  31   17   18 ar
  32   18   19 ar
  33   18   39 1
  34   19   20 ar
  35   19   40 1
  36   20   21 1
  37   21   22 ar
  38   21   26 ar
  39   22   23 ar
  40   22   41 1
  41   23   24 ar
  42   23   42 1
  43   24   25 ar
  44   24   28 1
  45   25   26 ar
  46   25   43 1
  47   26   44 1
  48   27   45 1
  49   27   46 1
  50   27   47 1
  51   28   48 1

#	End of record

