#	Name: ASD03090305
#	Creating user name:	WinNT
#	Creation time:	15. 06. 2019 20:28

#	Modifying user name:	WinNT
#	Modification time:	15. 06. 2019 20:28

#	Program:	/corina/corina34_cracker 3.40 0067  02.08.2006

@<TRIPOS>MOLECULE
ASD03090305
  60   63    0    0    0
SMALL
NO_CHARGES


@<TRIPOS>ATOM
   1 C1            -1.1811     2.0350    -1.4013 C.ar    
   2 C2            -0.9218     1.0926    -0.4080 C.ar    
   3 C3             0.3350     0.5457    -0.2764 C.ar    
   4 C4             1.3589     0.9346    -1.1417 C.ar    
   5 C5             1.1030     1.8788    -2.1361 C.ar    
   6 C6            -0.1617     2.4279    -2.2634 C.ar    
   7 C7             2.7093     0.3485    -1.0044 C.2     
   8 N8             6.1910     0.2998    -1.4916 N.pl3   
   9 C9             6.5318     1.3899    -2.2967 C.ar    
  10 C10            7.7670     2.0076    -2.1448 C.ar    
  11 C11            8.1037     3.0853    -2.9409 C.ar    
  12 C12            7.2136     3.5520    -3.8892 C.ar    
  13 C13            5.9779     2.9391    -4.0452 C.ar    
  14 C14            5.6388     1.8537    -3.2534 C.ar    
  15 N15            3.8303     0.8656    -1.4679 N.2     
  16 C16            4.8546     0.0677    -1.1599 C.2     
  17 N17            4.4039    -0.9709    -0.4953 N.2     
  18 N18            3.0141    -0.8097    -0.3763 N.pl3   
  19 C19            2.0785    -1.7202     0.2885 C.3     
  20 C20            2.0106    -1.3867     1.7566 C.2     
  21 N21            1.2083    -2.0983     2.5729 N.am    
  22 O22            5.1035     3.3997    -4.9781 O.3     
  23 O23            2.6780    -0.4779     2.2035 O.2     
  24 C24            1.1422    -1.7741     4.0000 C.3     
  25 C25            0.1265    -0.6515     4.2215 C.3     
  26 C26            0.7110    -3.0143     4.7853 C.3     
  27 O27           -0.3755     3.3546    -3.2381 O.3     
  28 C28           -1.7395     3.6531    -3.5529 C.3     
  29 C29           -2.5003     3.8289    -2.2323 C.3     
  30 N30           -2.4727     2.5557    -1.5032 N.3     
  31 C31           -3.0903     2.6947    -0.1776 C.3     
  32 C32            5.5219     4.5180    -5.7632 C.3     
  33 F33            6.6830     4.1842    -6.4686 F       
  34 F34            4.5092     4.8586    -6.6664 F       
  35 F35            5.7830     5.6059    -4.9233 F       
  36 H36           -1.7117     0.7894     0.2632 H       
  37 H37            0.5286    -0.1837     0.4962 H       
  38 H38            1.8926     2.1823    -2.8076 H       
  39 H39            6.8827    -0.2956    -1.1632 H       
  40 H40            8.4642     1.6452    -1.4039 H       
  41 H41            9.0643     3.5643    -2.8215 H       
  42 H42            7.4796     4.3949    -4.5098 H       
  43 H43            4.6778     1.3757    -3.3733 H       
  44 H44            1.0887    -1.6115    -0.1549 H       
  45 H45            2.4213    -2.7474     0.1647 H       
  46 H46            0.6745    -2.8251     2.2154 H       
  47 H47            2.1239    -1.4490     4.3445 H       
  48 H48           -0.8552    -0.9765     3.8770 H       
  49 H49            0.0774    -0.4103     5.2834 H       
  50 H50            0.4338     0.2321     3.6621 H       
  51 H51            1.4346    -3.8141     4.6275 H       
  52 H52            0.6619    -2.7731     5.8472 H       
  53 H53           -0.2707    -3.3393     4.4408 H       
  54 H54           -1.7909     4.5741    -4.1337 H       
  55 H55           -2.1746     2.8322    -4.1228 H       
  56 H56           -2.0208     4.6037    -1.6341 H       
  57 H57           -3.5330     4.1096    -2.4395 H       
  58 H58           -4.1259     3.0153    -0.2911 H       
  59 H59           -3.0615     1.7354     0.3391 H       
  60 H60           -2.5419     3.4366     0.4028 H       
@<TRIPOS>BOND
   1    1    2 ar
   2    1    6 ar
   3    1   30 1
   4    2    3 ar
   5    2   36 1
   6    3    4 ar
   7    3   37 1
   8    4    5 ar
   9    4    7 1
  10    5    6 ar
  11    5   38 1
  12    6   27 1
  13    7   15 2
  14    7   18 1
  15    8    9 1
  16    8   16 1
  17    8   39 1
  18    9   10 ar
  19    9   14 ar
  20   10   11 ar
  21   10   40 1
  22   11   12 ar
  23   11   41 1
  24   12   13 ar
  25   12   42 1
  26   13   14 ar
  27   13   22 1
  28   14   43 1
  29   15   16 1
  30   16   17 2
  31   17   18 1
  32   18   19 1
  33   19   20 1
  34   19   44 1
  35   19   45 1
  36   20   21 am
  37   20   23 2
  38   21   24 1
  39   21   46 1
  40   22   32 1
  41   24   25 1
  42   24   26 1
  43   24   47 1
  44   25   48 1
  45   25   49 1
  46   25   50 1
  47   26   51 1
  48   26   52 1
  49   26   53 1
  50   27   28 1
  51   28   29 1
  52   28   54 1
  53   28   55 1
  54   29   30 1
  55   29   56 1
  56   29   57 1
  57   30   31 1
  58   31   58 1
  59   31   59 1
  60   31   60 1
  61   32   33 1
  62   32   34 1
  63   32   35 1

#	End of record

