#	Name: ASD01900735
#	Creating user name:	WinNT
#	Creation time:	15. 06. 2019 19:52

#	Modifying user name:	WinNT
#	Modification time:	15. 06. 2019 19:52

#	Program:	/corina/corina34_cracker 3.40 0067  02.08.2006

@<TRIPOS>MOLECULE
ASD01900735
  69   74    0    0    0
SMALL
NO_CHARGES


@<TRIPOS>ATOM
   1 C1            -1.3257     2.1755    -0.5593 C.ar    
   2 C2            -1.3782     0.7950    -0.4122 C.ar    
   3 C3            -2.5727     0.1180    -0.5513 C.ar    
   4 C4            -3.7381     0.8151    -0.8408 C.ar    
   5 C5            -3.6822     2.2071    -0.9927 C.ar    
   6 O6            -4.9142     0.1625    -0.9677 O.3     
   7 C7            -5.9883     0.7438    -1.5299 C.2     
   8 C8            -6.0794     2.0839    -1.7252 C.2     
   9 C9            -4.9415     2.9254    -1.3155 C.2     
  10 C10           -7.1121    -0.1087    -1.9516 C.2     
  11 N11           -8.2092     0.4476    -2.5216 N.2     
  12 C12           -9.2218    -0.2681    -2.9075 C.2     
  13 N13           -9.2345    -1.6277    -2.7583 N.pl3   
  14 C14           -8.1452    -2.2586    -2.1835 C.2     
  15 C15           -7.0474    -1.4802    -1.7717 C.2     
  16 C16           -2.4804     2.8862    -0.8445 C.ar    
  17 C17          -10.1567    -2.5781    -3.0757 C.2     
  18 C18           -9.6792    -3.7947    -2.7165 C.2     
  19 C19           -8.4128    -3.6145    -2.1524 C.2     
  20 O20           -0.1422     2.8297    -0.4180 O.3     
  21 C21            1.0068     2.0347    -0.1184 C.3     
  22 C22            2.2351     2.9389     0.0028 C.3     
  23 N23            2.0650     3.8455     1.1461 N.3     
  24 C24            3.2607     4.6749     1.3425 C.3     
  25 C25            1.7310     3.0981     2.3652 C.3     
  26 C26            1.4191     4.0794     3.4974 C.3     
  27 C27            2.6382     4.9730     3.7420 C.3     
  28 C28            2.9945     5.7033     2.4441 C.3     
  29 N29            2.3246     5.9557     4.7879 N.3     
  30 C30            3.5084     6.7533     5.1326 C.3     
  31 C31            1.7625     5.2992     5.9752 C.3     
  32 C32            1.3144     6.3606     6.9825 C.3     
  33 C33            2.5162     7.2245     7.3748 C.3     
  34 C34            3.1124     7.8581     6.1148 C.3     
  35 N35           -5.0352     4.2318    -1.2399 N.2     
  36 O36           -3.9543     4.9908    -0.7295 O.3     
  37 H37           -0.4755     0.2464    -0.1871 H       
  38 H38           -2.6010    -0.9554    -0.4351 H       
  39 H39           -6.9615     2.5212    -2.1691 H       
  40 H40          -10.0736     0.2215    -3.3562 H       
  41 H41           -6.1807    -1.9396    -1.3198 H       
  42 H42           -2.4442     3.9595    -0.9594 H       
  43 H43          -11.1146    -2.3924    -3.5388 H       
  44 H44          -10.1882    -4.7387    -2.8439 H       
  45 H45           -7.7662    -4.3880    -1.7653 H       
  46 H46            0.8490     1.5082     0.8229 H       
  47 H47            1.1661     1.3106    -0.9174 H       
  48 H48            3.1238     2.3262     0.1541 H       
  49 H49            2.3478     3.5231    -0.9105 H       
  50 H50            4.0988     4.0410     1.6322 H       
  51 H51            3.5008     5.1919     0.4134 H       
  52 H52            0.8600     2.4698     2.1789 H       
  53 H53            2.5763     2.4716     2.6501 H       
  54 H54            0.5652     4.6969     3.2188 H       
  55 H55            1.1865     3.5244     4.4062 H       
  56 H56            3.4819     4.3597     4.0583 H       
  57 H57            3.8875     6.3085     2.6005 H       
  58 H58            2.1654     6.3464     2.1490 H       
  59 H59            4.2584     6.1099     5.5928 H       
  60 H60            3.9201     7.2016     4.2284 H       
  61 H61            0.9062     4.6914     5.6829 H       
  62 H62            2.5207     4.6627     6.4314 H       
  63 H63            0.5463     6.9889     6.5316 H       
  64 H64            0.9116     5.8729     7.8702 H       
  65 H65            2.1930     8.0091     8.0590 H       
  66 H66            3.2683     6.6031     7.8609 H       
  67 H67            3.9942     8.4402     6.3825 H       
  68 H68            2.3726     8.5100     5.6503 H       
  69 H69           -4.1162     5.9440    -0.7127 H       
@<TRIPOS>BOND
   1    1    2 ar
   2    1   20 1
   3    1   16 ar
   4    2    3 ar
   5    2   37 1
   6    3    4 ar
   7    3   38 1
   8    4    5 ar
   9    4    6 1
  10    5   16 ar
  11    5    9 1
  12    6    7 1
  13    7    8 2
  14    7   10 1
  15    8    9 1
  16    8   39 1
  17    9   35 2
  18   10   11 1
  19   10   15 2
  20   11   12 2
  21   12   13 1
  22   12   40 1
  23   13   14 1
  24   13   17 1
  25   14   15 1
  26   14   19 2
  27   15   41 1
  28   16   42 1
  29   17   18 2
  30   17   43 1
  31   18   19 1
  32   18   44 1
  33   19   45 1
  34   20   21 1
  35   21   22 1
  36   21   46 1
  37   21   47 1
  38   22   23 1
  39   22   48 1
  40   22   49 1
  41   23   24 1
  42   23   25 1
  43   24   28 1
  44   24   50 1
  45   24   51 1
  46   25   26 1
  47   25   52 1
  48   25   53 1
  49   26   27 1
  50   26   54 1
  51   26   55 1
  52   27   28 1
  53   27   29 1
  54   27   56 1
  55   28   57 1
  56   28   58 1
  57   29   30 1
  58   29   31 1
  59   30   34 1
  60   30   59 1
  61   30   60 1
  62   31   32 1
  63   31   61 1
  64   31   62 1
  65   32   33 1
  66   32   63 1
  67   32   64 1
  68   33   34 1
  69   33   65 1
  70   33   66 1
  71   34   67 1
  72   34   68 1
  73   35   36 1
  74   36   69 1

#	End of record

