#	Name: ASD00131011
#	Creating user name:	WinNT
#	Creation time:	15. 06. 2019 18:31

#	Modifying user name:	WinNT
#	Modification time:	15. 06. 2019 18:31

#	Program:	/corina/corina34_cracker 3.40 0067  02.08.2006

@<TRIPOS>MOLECULE
ASD00131011
  66   70    0    0    0
SMALL
NO_CHARGES


@<TRIPOS>ATOM
   1 N1             0.1472     1.6159    -0.0421 N.am    
   2 C2             0.0285     0.2774    -0.0530 C.2     
   3 C3             1.2117    -0.5814    -0.0287 C.2     
   4 C4             2.4774     0.0086     0.0057 C.2     
   5 C5             2.5613     1.4727     0.0160 C.ar    
   6 C6             3.8047     2.1146     0.0506 C.ar    
   7 C7             3.8647     3.4791     0.0602 C.ar    
   8 C8             2.7011     4.2354     0.0358 C.ar    
   9 C9             1.4665     3.6245     0.0016 C.ar    
  10 C10            1.3799     2.2347    -0.0083 C.ar    
  11 C11            1.0714    -2.0427    -0.0399 C.2     
  12 O12            2.0575    -2.7478    -0.1459 O.2     
  13 N13           -0.1495    -2.6033     0.0672 N.am    
  14 O14           -1.0798    -0.2273    -0.0830 O.2     
  15 C15           -1.0638     2.4397    -0.0729 C.3     
  16 C16           -1.5276     2.7185     1.3582 C.3     
  17 C17           -2.7175     3.6799     1.3305 C.3     
  18 C18           -1.9477     1.4061     2.0230 C.3     
  19 O19            3.5938    -0.7489     0.0292 O.3     
  20 N20           -1.2444    -5.4483     1.7203 N.3     
  21 C21           -0.0422    -4.7184     1.2960 C.3     
  22 C22           -0.3027    -4.0548    -0.0594 C.3     
  23 C23           -1.7332    -4.3838    -0.5047 C.3     
  24 C24           -2.7084    -3.8654     0.5598 C.3     
  25 C25           -2.3816    -4.5347     1.8978 C.3     
  26 C26           -1.5741    -6.5200     0.7705 C.3     
  27 C27           -1.8776    -5.9079    -0.5999 C.3     
  28 C28            0.2962    -3.6455     2.3330 C.3     
  29 C29            0.6696    -4.3056     3.6352 C.ar    
  30 C30            1.8828    -4.0097     4.2279 C.ar    
  31 C31            2.2165    -4.6220     5.4260 C.ar    
  32 C32            1.3134    -5.5131     5.9857 C.ar    
  33 C33            0.1194    -5.7595     5.3353 C.ar    
  34 N34           -0.1670    -5.1547     4.1988 N.ar    
  35 H35            4.7142     1.5326     0.0700 H       
  36 H36            4.8246     3.9732     0.0872 H       
  37 H37            2.7640     5.3136     0.0441 H       
  38 H38            0.5675     4.2226    -0.0168 H       
  39 H39           -0.9268    -2.0458     0.2280 H       
  40 H40           -0.8490     3.3828    -0.5755 H       
  41 H41           -1.8493     1.9109    -0.6129 H       
  42 H42           -0.7110     3.1672     1.9238 H       
  43 H43           -3.5341     3.2312     0.7649 H       
  44 H44           -3.0479     3.8785     2.3501 H       
  45 H45           -2.4182     4.6149     0.8569 H       
  46 H46           -2.7642     0.9574     1.4573 H       
  47 H47           -1.1000     0.7212     2.0427 H       
  48 H48           -2.2781     1.6047     3.0425 H       
  49 H49            3.4238    -1.6977     0.1064 H       
  50 H50            0.7925    -5.4137     1.2060 H       
  51 H51            0.4071    -4.4343    -0.7944 H       
  52 H52           -1.9437    -3.9149    -1.4659 H       
  53 H53           -2.6028    -2.7849     0.6566 H       
  54 H54           -3.7300    -4.1098     0.2691 H       
  55 H55           -3.2487    -5.0965     2.2448 H       
  56 H56           -2.1240    -3.7720     2.6326 H       
  57 H57           -0.7288    -7.2027     0.6848 H       
  58 H58           -2.4479    -7.0655     1.1268 H       
  59 H59           -2.8960    -6.1605    -0.8952 H       
  60 H60           -1.1747    -6.2960    -1.3370 H       
  61 H61            1.1339    -3.0465     1.9759 H       
  62 H62           -0.5706    -3.0028     2.4869 H       
  63 H63            2.5623    -3.3105     3.7633 H       
  64 H64            3.1576    -4.4103     5.9118 H       
  65 H65            1.5406    -6.0087     6.9181 H       
  66 H66           -0.5893    -6.4522     5.7647 H       
@<TRIPOS>BOND
   1    1    2 am
   2    1   10 1
   3    1   15 1
   4    2    3 1
   5    2   14 2
   6    3    4 2
   7    3   11 1
   8    4    5 1
   9    4   19 1
  10    5    6 ar
  11    5   10 ar
  12    6    7 ar
  13    6   35 1
  14    7    8 ar
  15    7   36 1
  16    8    9 ar
  17    8   37 1
  18    9   10 ar
  19    9   38 1
  20   11   12 2
  21   11   13 am
  22   13   22 1
  23   13   39 1
  24   15   16 1
  25   15   40 1
  26   15   41 1
  27   16   17 1
  28   16   18 1
  29   16   42 1
  30   17   43 1
  31   17   44 1
  32   17   45 1
  33   18   46 1
  34   18   47 1
  35   18   48 1
  36   19   49 1
  37   20   21 1
  38   20   25 1
  39   20   26 1
  40   21   22 1
  41   21   28 1
  42   21   50 1
  43   22   23 1
  44   22   51 1
  45   23   24 1
  46   23   27 1
  47   23   52 1
  48   24   25 1
  49   24   53 1
  50   24   54 1
  51   25   55 1
  52   25   56 1
  53   26   27 1
  54   26   57 1
  55   26   58 1
  56   27   59 1
  57   27   60 1
  58   28   29 1
  59   28   61 1
  60   28   62 1
  61   29   30 ar
  62   29   34 ar
  63   30   31 ar
  64   30   63 1
  65   31   32 ar
  66   31   64 1
  67   32   33 ar
  68   32   65 1
  69   33   34 ar
  70   33   66 1

#	End of record

