#	Name: ASD01841070
#	Creating user name:	WinNT
#	Creation time:	15. 06. 2019 19:38

#	Modifying user name:	WinNT
#	Modification time:	15. 06. 2019 19:38

#	Program:	/corina/corina34_cracker 3.40 0067  02.08.2006

@<TRIPOS>MOLECULE
ASD01841070
  27   29    0    0    0
SMALL
NO_CHARGES


@<TRIPOS>ATOM
   1 N1            -0.0154     1.2836     0.0091 N.2     
   2 C2             0.0021    -0.0041     0.0020 C.2     
   3 S3             1.6576    -0.5950    -0.0170 S.3     
   4 C4             2.2643     1.0602    -0.0139 C.ar    
   5 C5             1.1663     1.9286     0.0013 C.ar    
   6 C6             1.4223     3.3168     0.0063 C.ar    
   7 C7             2.7303     3.7508    -0.0039 C.ar    
   8 C8             3.7596     2.8241    -0.0187 C.ar    
   9 N9             3.5058     1.5337    -0.0236 N.ar    
  10 N10           -1.1246    -0.8098     0.0084 N.am    
  11 C11           -0.9939    -2.1511    -0.0000 C.2     
  12 C12           -2.2197    -3.0277     0.0070 C.3     
  13 O13            0.1101    -2.6527    -0.0132 O.2     
  14 C14           -1.9013    -4.5322    -0.0041 C.3     
  15 C15           -3.0587    -4.7045     0.9936 C.3     
  16 C16           -2.8144    -3.2440     1.4086 C.3     
  17 H17            0.6078     4.0260     0.0175 H       
  18 H18            2.9515     4.8079    -0.0007 H       
  19 H19            4.7841     3.1658    -0.0266 H       
  20 H20           -2.0077    -0.4086     0.0190 H       
  21 H21           -2.9560    -2.7317    -0.7403 H       
  22 H22           -2.0806    -5.0093    -0.9676 H       
  23 H23           -0.9244    -4.7748     0.4142 H       
  24 H24           -4.0254    -4.8671     0.5171 H       
  25 H25           -2.8494    -5.4241     1.7851 H       
  26 H26           -2.0871    -3.1345     2.2131 H       
  27 H27           -3.7309    -2.6812     1.5856 H       
@<TRIPOS>BOND
   1    1    2 2
   2    1    5 1
   3    2    3 1
   4    2   10 1
   5    3    4 1
   6    4    5 ar
   7    4    9 ar
   8    5    6 ar
   9    6    7 ar
  10    6   17 1
  11    7    8 ar
  12    7   18 1
  13    8    9 ar
  14    8   19 1
  15   10   11 am
  16   10   20 1
  17   11   12 1
  18   11   13 2
  19   12   14 1
  20   12   16 1
  21   12   21 1
  22   14   15 1
  23   14   22 1
  24   14   23 1
  25   15   16 1
  26   15   24 1
  27   15   25 1
  28   16   26 1
  29   16   27 1

#	End of record

