#	Name: ASD02508257
#	Creating user name:	WinNT
#	Creation time:	15. 06. 2019 20:24

#	Modifying user name:	WinNT
#	Modification time:	15. 06. 2019 20:24

#	Program:	/corina/corina34_cracker 3.40 0067  02.08.2006

@<TRIPOS>MOLECULE
ASD02508257
  55   58    0    0    0
SMALL
NO_CHARGES


@<TRIPOS>ATOM
   1 C1             0.3092     1.0080     0.9346 C.ar    
   2 C2             0.2800    -0.3159     0.4970 C.ar    
   3 C3            -0.9332    -0.9117     0.1896 C.ar    
   4 C4            -2.1057    -0.1930     0.3178 C.ar    
   5 C5            -2.0757     1.1210     0.7517 C.ar    
   6 C6            -0.8720     1.7214     1.0656 C.ar    
   7 S7            -3.6469    -0.9522    -0.0734 S.o2    
   8 N8            -4.1885    -1.6990     1.3018 N.am    
   9 C9            -3.4441    -2.7349     1.8743 C.ar    
  10 N10            1.6486     1.3233     1.1614 N.am    
  11 C11            2.3777     0.2282     0.8688 C.2     
  12 O12            1.5608    -0.7591     0.4692 O.3     
  13 O13           -4.5582     0.1046    -0.3417 O.2     
  14 O14           -3.3598    -1.9861    -1.0050 O.2     
  15 C15            2.1680     2.6098     1.6318 C.3     
  16 O16            3.5880     0.1472     0.9535 O.2     
  17 C17           -3.2317    -2.7626     3.2467 C.ar    
  18 C18           -2.9210    -3.7406     1.0724 C.ar    
  19 C19           -2.1862    -4.7634     1.6403 C.ar    
  20 C20           -1.9717    -4.7864     3.0078 C.ar    
  21 C21           -2.4966    -3.7870     3.8100 C.ar    
  22 C22           -2.2613    -3.8147     5.2983 C.3     
  23 C23           -0.8419     3.1520     1.5384 C.3     
  24 F24           -1.2536    -5.7880     3.5611 F       
  25 C25            2.4984     3.4967     0.4297 C.3     
  26 N26            3.0193     4.7867     0.9014 N.3     
  27 C27            3.5677     5.5729    -0.2133 C.3     
  28 C28            4.0310     4.5945     1.9506 C.3     
  29 C29            4.5023     5.9613     2.4541 C.3     
  30 O30            5.0031     6.7230     1.3521 O.3     
  31 C31            4.0437     6.9299     0.3120 C.3     
  32 H32           -0.9617    -1.9365    -0.1501 H       
  33 H33           -2.9964     1.6772     0.8490 H       
  34 H34           -5.0222    -1.4178     1.7102 H       
  35 H35            1.4166     3.1009     2.2501 H       
  36 H36            3.0706     2.4440     2.2200 H       
  37 H37           -3.6408    -1.9834     3.8727 H       
  38 H38           -3.0887    -3.7234     0.0057 H       
  39 H39           -1.7791    -5.5458     1.0170 H       
  40 H40           -1.3465    -3.2701     5.5317 H       
  41 H41           -3.1032    -3.3462     5.8080 H       
  42 H42           -2.1642    -4.8480     5.6315 H       
  43 H43           -0.8300     3.1744     2.6281 H       
  44 H44            0.0528     3.6426     1.1551 H       
  45 H45           -1.7268     3.6738     1.1740 H       
  46 H46            3.2499     3.0056    -0.1885 H       
  47 H47            1.5958     3.6625    -0.1584 H       
  48 H48            4.4084     5.0389    -0.6563 H       
  49 H49            2.7946     5.7249    -0.9664 H       
  50 H50            3.5961     4.0324     2.7770 H       
  51 H51            4.8791     4.0449     1.5422 H       
  52 H52            3.6653     6.4893     2.9110 H       
  53 H53            5.2934     5.8246     3.1915 H       
  54 H54            4.5030     7.4937    -0.5000 H       
  55 H55            3.1933     7.4860     0.7066 H       
@<TRIPOS>BOND
   1    1    2 ar
   2    1   10 1
   3    1    6 ar
   4    2    3 ar
   5    2   12 1
   6    3    4 ar
   7    3   32 1
   8    4    5 ar
   9    4    7 1
  10    5    6 ar
  11    5   33 1
  12    6   23 1
  13    7    8 am
  14    7   13 2
  15    7   14 2
  16    8    9 1
  17    8   34 1
  18    9   17 ar
  19    9   18 ar
  20   10   11 am
  21   10   15 1
  22   11   12 1
  23   11   16 2
  24   15   25 1
  25   15   35 1
  26   15   36 1
  27   17   21 ar
  28   17   37 1
  29   18   19 ar
  30   18   38 1
  31   19   20 ar
  32   19   39 1
  33   20   21 ar
  34   20   24 1
  35   21   22 1
  36   22   40 1
  37   22   41 1
  38   22   42 1
  39   23   43 1
  40   23   44 1
  41   23   45 1
  42   25   26 1
  43   25   46 1
  44   25   47 1
  45   26   27 1
  46   26   28 1
  47   27   31 1
  48   27   48 1
  49   27   49 1
  50   28   29 1
  51   28   50 1
  52   28   51 1
  53   29   30 1
  54   29   52 1
  55   29   53 1
  56   30   31 1
  57   31   54 1
  58   31   55 1

#	End of record

