#	Name: ASD03930087
#	Creating user name:	WinNT
#	Creation time:	15. 06. 2019 20:47

#	Modifying user name:	WinNT
#	Modification time:	15. 06. 2019 20:47

#	Program:	/corina/corina34_cracker 3.40 0067  02.08.2006

@<TRIPOS>MOLECULE
ASD03930087
  32   34    0    0    0
SMALL
NO_CHARGES


@<TRIPOS>ATOM
   1 C1            -0.0166     1.3759     0.0096 C.ar    
   2 C2             0.0021    -0.0041     0.0020 C.ar    
   3 C3             1.2084    -0.6853    -0.0123 C.ar    
   4 C4             2.4061     0.0027    -0.0196 C.ar    
   5 C5             2.4072     1.3887    -0.0134 C.ar    
   6 C6             1.1846     2.0776     0.0019 C.ar    
   7 C7             1.2103     3.5600     0.0097 C.2     
   8 O8             0.2242     4.2263     0.2589 O.2     
   9 N9             2.4088     4.1199    -0.2798 N.am    
  10 C10            3.5828     3.3332    -0.7103 C.3     
  11 C11            4.2921     5.6192    -0.5262 C.3     
  12 C12            2.7853     5.5307    -0.1952 C.3     
  13 C13            4.7967     4.1759    -0.2530 C.3     
  14 C14            1.2139    -2.1922    -0.0196 C.3     
  15 O15            1.2033    -2.6621    -1.3691 O.3     
  16 C16            1.2074    -4.0861    -1.4888 C.3     
  17 O17            3.5751     2.0806    -0.0238 O.3     
  18 H18           -0.9569     1.9072     0.0170 H       
  19 H19           -0.9269    -0.5549     0.0077 H       
  20 H20            3.3406    -0.5386    -0.0298 H       
  21 H21            3.5870     3.1959    -1.7916 H       
  22 H22            4.4418     5.8883    -1.5718 H       
  23 H23            4.7897     6.3322     0.1313 H       
  24 H24            2.2118     6.1118    -0.9173 H       
  25 H25            2.6041     5.9035     0.8129 H       
  26 H26            4.9991     4.0265     0.8076 H       
  27 H27            5.6781     3.9497    -0.8532 H       
  28 H28            2.1099    -2.5547     0.4843 H       
  29 H29            0.3301    -2.5613     0.5006 H       
  30 H30            2.1033    -4.4879    -1.0154 H       
  31 H31            0.3234    -4.4945    -0.9990 H       
  32 H32            1.1988    -4.3621    -2.5432 H       
@<TRIPOS>BOND
   1    1    2 ar
   2    1    6 ar
   3    1   18 1
   4    2    3 ar
   5    2   19 1
   6    3    4 ar
   7    3   14 1
   8    4    5 ar
   9    4   20 1
  10    5    6 ar
  11    5   17 1
  12    6    7 1
  13    7    8 2
  14    7    9 am
  15    9   10 1
  16    9   12 1
  17   10   13 1
  18   10   17 1
  19   10   21 1
  20   11   12 1
  21   11   13 1
  22   11   22 1
  23   11   23 1
  24   12   24 1
  25   12   25 1
  26   13   26 1
  27   13   27 1
  28   14   15 1
  29   14   28 1
  30   14   29 1
  31   15   16 1
  32   16   30 1
  33   16   31 1
  34   16   32 1

#	End of record

