#	Name: ASD02190019
#	Creating user name:	WinNT
#	Creation time:	15. 06. 2019 20:18

#	Modifying user name:	WinNT
#	Modification time:	15. 06. 2019 20:18

#	Program:	/corina/corina34_cracker 3.40 0067  02.08.2006

@<TRIPOS>MOLECULE
ASD02190019
  44   46    0    0    0
SMALL
NO_CHARGES


@<TRIPOS>ATOM
   1 C1            -0.0628     1.4703    -0.6416 C.ar    
   2 N2            -0.0379     0.1750    -0.9122 N.ar    
   3 C3            -1.1497    -0.5524    -0.8714 C.ar    
   4 N4            -2.3230    -0.0122    -0.5594 N.ar    
   5 C5            -2.4172     1.2823    -0.2771 C.ar    
   6 C6            -1.2630     2.0695    -0.3073 C.ar    
   7 N7            -3.6425     1.8436     0.0477 N.pl3   
   8 C8            -4.8104     1.0792    -0.0509 C.ar    
   9 C9            -4.8295    -0.0634    -0.8386 C.ar    
  10 C10           -5.9841    -0.8166    -0.9337 C.ar    
  11 C11           -7.1205    -0.4338    -0.2460 C.ar    
  12 C12           -7.1068     0.7044     0.5400 C.ar    
  13 C13           -5.9535     1.4594     0.6448 C.ar    
  14 C14           -8.3775    -1.2581    -0.3532 C.3     
  15 C15           -1.0796    -1.9921    -1.1800 C.2     
  16 C16            0.0431    -2.6640    -1.5109 C.2     
  17 C17           -0.1397    -4.0067    -1.7561 C.2     
  18 C18           -1.4024    -4.4396    -1.6288 C.2     
  19 S19           -2.4448    -3.1009    -1.1663 S.3     
  20 F20           -1.8111    -5.7128    -1.8214 F       
  21 F21           -5.9399     2.5711     1.4125 F       
  22 C22            1.2055     2.2827    -0.6912 C.3     
  23 C23           -1.1164     3.7532     1.5072 C.3     
  24 C24           -1.3271     3.5420     0.0066 C.3     
  25 C25           -8.3827    -2.3090     0.7269 C.2     
  26 O26           -7.4603    -2.3812     1.5040 O.2     
  27 O27           -9.4120    -3.1649     0.8256 O.3     
  28 H28           -3.6902     2.7663     0.3433 H       
  29 H29           -3.9427    -0.3635    -1.3771 H       
  30 H30           -5.9988    -1.7057    -1.5466 H       
  31 H31           -7.9965     1.0010     1.0757 H       
  32 H32           -9.2471    -0.6116    -0.2353 H       
  33 H33           -8.4133    -1.7407    -1.3299 H       
  34 H34            1.0092    -2.1860    -1.5785 H       
  35 H35            0.6734    -4.6623    -2.0309 H       
  36 H36            1.3417     2.6827    -1.6960 H       
  37 H37            1.1385     3.1049     0.0212 H       
  38 H38            2.0538     1.6480    -0.4348 H       
  39 H39           -0.1406     3.3623     1.7956 H       
  40 H40           -1.1627     4.8183     1.7343 H       
  41 H41           -1.8956     3.2294     2.0608 H       
  42 H42           -0.5478     4.0658    -0.5470 H       
  43 H43           -2.3029     3.9329    -0.2818 H       
  44 H44           -9.3706    -3.8214     1.5344 H       
@<TRIPOS>BOND
   1    1    2 ar
   2    1   22 1
   3    1    6 ar
   4    2    3 ar
   5    3    4 ar
   6    3   15 1
   7    4    5 ar
   8    5    6 ar
   9    5    7 1
  10    6   24 1
  11    7    8 1
  12    7   28 1
  13    8    9 ar
  14    8   13 ar
  15    9   10 ar
  16    9   29 1
  17   10   11 ar
  18   10   30 1
  19   11   12 ar
  20   11   14 1
  21   12   13 ar
  22   12   31 1
  23   13   21 1
  24   14   25 1
  25   14   32 1
  26   14   33 1
  27   15   16 2
  28   15   19 1
  29   16   17 1
  30   16   34 1
  31   17   18 2
  32   17   35 1
  33   18   19 1
  34   18   20 1
  35   22   36 1
  36   22   37 1
  37   22   38 1
  38   23   24 1
  39   23   39 1
  40   23   40 1
  41   23   41 1
  42   24   42 1
  43   24   43 1
  44   25   26 2
  45   25   27 1
  46   27   44 1

#	End of record

