#	Name: ASD01911107
#	Creating user name:	WinNT
#	Creation time:	15. 06. 2019 19:57

#	Modifying user name:	WinNT
#	Modification time:	15. 06. 2019 19:57

#	Program:	/corina/corina34_cracker 3.40 0067  02.08.2006

@<TRIPOS>MOLECULE
ASD01911107
  45   48    0    0    0
SMALL
NO_CHARGES


@<TRIPOS>ATOM
   1 C1            -0.1997     1.1541     1.1205 C.2     
   2 O2            -0.3551    -0.0460     1.0048 O.2     
   3 N3             1.0403     1.6804     1.0759 N.am    
   4 C4             2.2201     0.8099     0.9823 C.3     
   5 C5             3.1875     1.1671     2.1151 C.3     
   6 C6             3.5042     2.6633     2.0574 C.3     
   7 C7             2.2162     3.4669     2.2507 C.3     
   8 C8             1.2375     3.1359     1.1138 C.3     
   9 O9             5.2922     0.4104     0.9109 O.3     
  10 N10            6.2236    -0.3436     1.0984 N.2     
  11 C11            6.0999    -0.9318     2.2564 C.2     
  12 N12            4.9632    -0.4726     2.8194 N.2     
  13 C13            4.4610     0.3770     1.9570 C.2     
  14 O14            6.9550    -1.8367     2.7941 O.3     
  15 C15            8.1197    -2.0820     2.1381 C.ar    
  16 C16            8.4851    -1.2975     1.0537 C.ar    
  17 C17            9.6695    -1.5489     0.3887 C.ar    
  18 C18           10.4903    -2.5818     0.8025 C.ar    
  19 C19           10.1282    -3.3655     1.8826 C.ar    
  20 C20            8.9481    -3.1139     2.5552 C.ar    
  21 C21           -1.3709     2.0366     1.3039 C.ar    
  22 C22           -1.4422     3.2560     0.6277 C.ar    
  23 C23           -2.5383     4.0757     0.8031 C.ar    
  24 C24           -3.5669     3.6898     1.6488 C.ar    
  25 C25           -3.5007     2.4814     2.3216 C.ar    
  26 C26           -2.4126     1.6515     2.1495 C.ar    
  27 Cl27          -4.9429     4.7259     1.8656 Cl      
  28 Cl28          -2.6293     5.5927    -0.0360 Cl      
  29 H29            1.9141    -0.2319     1.0781 H       
  30 H30            2.7110     0.9618     0.0210 H       
  31 H31            2.7281     0.9293     3.0745 H       
  32 H32            4.2116     2.9155     2.8473 H       
  33 H33            3.9409     2.9049     1.0883 H       
  34 H34            1.7659     3.2074     3.2088 H       
  35 H35            2.4459     4.5322     2.2328 H       
  36 H36            1.6499     3.4736     0.1630 H       
  37 H37            0.2829     3.6294     1.2963 H       
  38 H38            7.8440    -0.4910     0.7297 H       
  39 H39            9.9544    -0.9385    -0.4555 H       
  40 H40           11.4157    -2.7771     0.2810 H       
  41 H41           10.7707    -4.1721     2.2035 H       
  42 H42            8.6680    -3.7233     3.4018 H       
  43 H43           -0.6411     3.5573    -0.0310 H       
  44 H44           -4.3050     2.1861     2.9791 H       
  45 H45           -2.3646     0.7072     2.6715 H       
@<TRIPOS>BOND
   1    1    2 2
   2    1    3 am
   3    1   21 1
   4    3    4 1
   5    3    8 1
   6    4    5 1
   7    4   29 1
   8    4   30 1
   9    5    6 1
  10    5   13 1
  11    5   31 1
  12    6    7 1
  13    6   32 1
  14    6   33 1
  15    7    8 1
  16    7   34 1
  17    7   35 1
  18    8   36 1
  19    8   37 1
  20    9   10 1
  21    9   13 1
  22   10   11 2
  23   11   12 1
  24   11   14 1
  25   12   13 2
  26   14   15 1
  27   15   16 ar
  28   15   20 ar
  29   16   17 ar
  30   16   38 1
  31   17   18 ar
  32   17   39 1
  33   18   19 ar
  34   18   40 1
  35   19   20 ar
  36   19   41 1
  37   20   42 1
  38   21   22 ar
  39   21   26 ar
  40   22   23 ar
  41   22   43 1
  42   23   24 ar
  43   23   28 1
  44   24   25 ar
  45   24   27 1
  46   25   26 ar
  47   25   44 1
  48   26   45 1

#	End of record

