#	Name: ASD07930614
#	Creating user name:	WinNT
#	Creation time:	15. 06. 2019 21:12

#	Modifying user name:	WinNT
#	Modification time:	15. 06. 2019 21:12

#	Program:	/corina/corina34_cracker 3.40 0067  02.08.2006

@<TRIPOS>MOLECULE
ASD07930614
  49   51    0    0    0
SMALL
NO_CHARGES


@<TRIPOS>ATOM
   1 C1             1.3695     0.7527    -1.5469 C.3     
   2 N2             2.3133    -2.0772    -1.4376 N.2     
   3 N3             0.0354    -2.5822    -1.3054 N.pl3   
   4 C4            -0.8997    -2.7428    -0.1869 C.3     
   5 C5            -1.5451    -1.3872     0.1318 C.3     
   6 S6            -0.2178    -0.1887     0.4727 S.o2    
   7 N7             0.8029    -0.3916    -0.8287 N.am    
   8 C8             1.0893    -1.6979    -1.1989 C.2     
   9 C9            -0.1434    -3.2503     1.0425 C.3     
  10 C10           -1.9705    -3.7337    -0.5646 C.ar    
  11 C11           -1.6886    -4.7475    -1.4614 C.ar    
  12 C12           -2.6781    -5.6614    -1.8086 C.ar    
  13 C13           -3.9453    -5.5528    -1.2535 C.ar    
  14 C14           -4.2220    -4.5378    -0.3577 C.ar    
  15 C15           -3.2350    -3.6318    -0.0088 C.ar    
  16 O16           -0.6966     1.1433     0.3473 O.2     
  17 O17            0.5512    -0.5940     1.5967 O.2     
  18 N18           -2.3960    -6.6893    -2.7171 N.am    
  19 C19           -3.3927    -7.2520    -3.4289 C.2     
  20 O20           -4.5200    -6.8028    -3.3563 O.2     
  21 C21           -3.1149    -8.4158    -4.2981 C.ar    
  22 N22           -1.8808    -8.9009    -4.3723 N.ar    
  23 C23           -1.5893    -9.9329    -5.1314 C.ar    
  24 C24           -2.5731   -10.5592    -5.8919 C.ar    
  25 C25           -3.8795   -10.0802    -5.8415 C.ar    
  26 C26           -4.1528    -8.9960    -5.0272 C.ar    
  27 F27           -0.4540    -4.8500    -2.0003 F       
  28 F28           -3.5087    -2.6405     0.8673 F       
  29 O29           -2.2621   -11.6241    -6.6739 O.3     
  30 C30           -0.8996   -12.0548    -6.6715 C.3     
  31 H31            2.3185     1.0344    -1.0906 H       
  32 H32            1.5340     0.4818    -2.5898 H       
  33 H33            0.6775     1.5933    -1.4947 H       
  34 H34            3.0422    -1.4421    -1.3576 H       
  35 H35           -0.0845    -3.0996    -2.1170 H       
  36 H36           -2.1337    -1.0507    -0.7217 H       
  37 H37           -2.1876    -1.4828     1.0071 H       
  38 H38            0.6914    -2.5829     1.2566 H       
  39 H39           -0.8173    -3.2755     1.8988 H       
  40 H40            0.2346    -4.2540     0.8478 H       
  41 H41           -4.7151    -6.2612    -1.5219 H       
  42 H42           -5.2083    -4.4536     0.0741 H       
  43 H43           -1.4833    -6.9963    -2.8341 H       
  44 H44           -0.5741   -10.2996    -5.1662 H       
  45 H45           -4.6620   -10.5472    -6.4211 H       
  46 H46           -5.1550    -8.5986    -4.9635 H       
  47 H47           -0.7882   -12.9114    -7.3362 H       
  48 H48           -0.2609   -11.2417    -7.0165 H       
  49 H49           -0.6104   -12.3398    -5.6599 H       
@<TRIPOS>BOND
   1    1    7 1
   2    1   31 1
   3    1   32 1
   4    1   33 1
   5    2    8 2
   6    2   34 1
   7    3    4 1
   8    3    8 1
   9    3   35 1
  10    4    5 1
  11    4    9 1
  12    4   10 1
  13    5    6 1
  14    5   36 1
  15    5   37 1
  16    6    7 am
  17    6   16 2
  18    6   17 2
  19    7    8 1
  20    9   38 1
  21    9   39 1
  22    9   40 1
  23   10   11 ar
  24   10   15 ar
  25   11   12 ar
  26   11   27 1
  27   12   13 ar
  28   12   18 1
  29   13   14 ar
  30   13   41 1
  31   14   15 ar
  32   14   42 1
  33   15   28 1
  34   18   19 am
  35   18   43 1
  36   19   20 2
  37   19   21 1
  38   21   22 ar
  39   21   26 ar
  40   22   23 ar
  41   23   24 ar
  42   23   44 1
  43   24   25 ar
  44   24   29 1
  45   25   26 ar
  46   25   45 1
  47   26   46 1
  48   29   30 1
  49   30   47 1
  50   30   48 1
  51   30   49 1

#	End of record

