#	Name: ASD01180414
#	Creating user name:	WinNT
#	Creation time:	15. 06. 2019 19:07

#	Modifying user name:	WinNT
#	Modification time:	15. 06. 2019 19:07

#	Program:	/corina/corina34_cracker 3.40 0067  02.08.2006

@<TRIPOS>MOLECULE
ASD01180414
  24   23    0    0    0
SMALL
NO_CHARGES


@<TRIPOS>ATOM
   1 N1            -0.0139     1.4403    -0.0179 N.3     
   2 N2            -0.0069     0.0345    -0.3891 N.3     
   3 C3             1.2817     1.9635    -0.0135 C.ar    
   4 C4             1.5048     3.2729    -0.4198 C.ar    
   5 C5             2.7864     3.7873    -0.4144 C.ar    
   6 C6             3.8478     2.9995    -0.0053 C.ar    
   7 C7             3.6286     1.6948     0.3999 C.ar    
   8 C8             2.3483     1.1770     0.4025 C.ar    
   9 C9             2.1096    -0.2421     0.8499 C.3     
  10 C10            0.3495     4.1313    -0.8664 C.3     
  11 Br11           5.6014     3.7071    -0.0005 Br      
  12 H12           -0.6166     1.9723    -0.6277 H       
  13 H13           -0.9425    -0.3433    -0.3923 H       
  14 H14            0.4409    -0.1012    -1.2830 H       
  15 H15            2.9605     4.8053    -0.7301 H       
  16 H16            4.4590     1.0821     0.7184 H       
  17 H17            2.0867    -0.8984    -0.0201 H       
  18 H18            2.9130    -0.5525     1.5180 H       
  19 H19            1.1565    -0.3020     1.3754 H       
  20 H20           -0.0630     4.6609    -0.0077 H       
  21 H21            0.6974     4.8529    -1.6055 H       
  22 H22           -0.4217     3.5009    -1.3092 H       
  23 Cl23          10.6014     9.8529     6.5180 Cl      
  24 H24           10.6014    11.2229     6.5180 H       
@<TRIPOS>BOND
   1    1    2 1
   2    1    3 1
   3    1   12 1
   4    2   13 1
   5    2   14 1
   6    3    4 ar
   7    3    8 ar
   8    4    5 ar
   9    4   10 1
  10    5    6 ar
  11    5   15 1
  12    6    7 ar
  13    6   11 1
  14    7    8 ar
  15    7   16 1
  16    8    9 1
  17    9   17 1
  18    9   18 1
  19    9   19 1
  20   10   20 1
  21   10   21 1
  22   10   22 1
  23   23   24 1

#	End of record

