#	Name: ASD05313009
#	Creating user name:	WinNT
#	Creation time:	15. 06. 2019 20:58

#	Modifying user name:	WinNT
#	Modification time:	15. 06. 2019 20:58

#	Program:	/corina/corina34_cracker 3.40 0067  02.08.2006

@<TRIPOS>MOLECULE
ASD05313009
  35   37    0    0    0
SMALL
NO_CHARGES


@<TRIPOS>ATOM
   1 C1            -0.0721     0.8165     1.0252 C.2     
   2 C2             0.1141    -0.6194     0.5975 C.3     
   3 N3             0.9299     1.7317     1.0518 N.pl3   
   4 N4             1.4574    -0.7183    -0.0041 N.am    
   5 C5             2.5712    -0.0358     0.6720 C.3     
   6 C6             2.3165     1.4762     0.6646 C.3     
   7 N7            -0.8903     2.6395     1.7070 N.2     
   8 N8            -1.1537     1.4086     1.4280 N.2     
   9 C9             0.3776     2.8797     1.4923 C.2     
  10 C10            1.0879     4.1922     1.7015 C.3     
  11 C11            1.0300     5.0146     0.4126 C.3     
  12 C12            1.6584    -1.4144    -1.1406 C.2     
  13 O13            2.7502    -1.4034    -1.6750 O.2     
  14 C14            0.5517    -2.1911    -1.7368 C.ar    
  15 C15            0.3207    -2.1400    -3.1138 C.ar    
  16 C16           -0.7166    -2.8694    -3.6640 C.ar    
  17 C17           -1.5245    -3.6477    -2.8532 C.ar    
  18 C18           -1.3000    -3.7012    -1.4890 C.ar    
  19 C19           -0.2643    -2.9836    -0.9276 C.ar    
  20 Cl20          -1.0069    -2.8086    -5.3745 Cl      
  21 Cl21           1.3332    -1.1630    -4.1307 Cl      
  22 H22            0.0450    -1.2775     1.4636 H       
  23 H23           -0.6438    -0.8897    -0.1378 H       
  24 H24            2.6429    -0.3879     1.7011 H       
  25 H25            3.5021    -0.2508     0.1473 H       
  26 H26            2.4939     1.8705    -0.3359 H       
  27 H27            2.9878     1.9620     1.3728 H       
  28 H28            0.6025     4.7438     2.5066 H       
  29 H29            2.1285     4.0040     1.9660 H       
  30 H30           -0.0105     5.2027     0.1481 H       
  31 H31            1.5438     5.9639     0.5639 H       
  32 H32            1.5155     4.4630    -0.3925 H       
  33 H33           -2.3340    -4.2156    -3.2874 H       
  34 H34           -1.9346    -4.3103    -0.8624 H       
  35 H35           -0.0881    -3.0308     0.1369 H       
@<TRIPOS>BOND
   1    1    2 1
   2    1    3 1
   3    1    8 2
   4    2    4 1
   5    2   22 1
   6    2   23 1
   7    3    6 1
   8    3    9 1
   9    4    5 1
  10    4   12 am
  11    5    6 1
  12    5   24 1
  13    5   25 1
  14    6   26 1
  15    6   27 1
  16    7    8 1
  17    7    9 2
  18    9   10 1
  19   10   11 1
  20   10   28 1
  21   10   29 1
  22   11   30 1
  23   11   31 1
  24   11   32 1
  25   12   13 2
  26   12   14 1
  27   14   15 ar
  28   14   19 ar
  29   15   16 ar
  30   15   21 1
  31   16   17 ar
  32   16   20 1
  33   17   18 ar
  34   17   33 1
  35   18   19 ar
  36   18   34 1
  37   19   35 1

#	End of record

