#	Name: ASD01901162
#	Creating user name:	WinNT
#	Creation time:	15. 06. 2019 19:53

#	Modifying user name:	WinNT
#	Modification time:	15. 06. 2019 19:53

#	Program:	/corina/corina34_cracker 3.40 0067  02.08.2006

@<TRIPOS>MOLECULE
ASD01901162
  51   54    0    0    0
SMALL
NO_CHARGES


@<TRIPOS>ATOM
   1 C1            -0.0166     1.3750     0.0096 C.ar    
   2 C2             0.0021    -0.0041     0.0020 C.ar    
   3 C3             1.2078    -0.6830    -0.0131 C.ar    
   4 C4             2.4027     0.0149    -0.0203 C.ar    
   5 C5             2.3997     1.3941    -0.0124 C.ar    
   6 C6             1.1860     2.0866     0.0019 C.ar    
   7 C7             1.1748     3.5185     0.0093 C.1     
   8 C8             1.1655     4.6925     0.0153 C.1     
   9 C9             1.1543     6.1244     0.0226 C.ar    
  10 C10            2.3583     6.8345     0.0149 C.ar    
  11 C11            2.3436     8.2144     0.0221 C.ar    
  12 C12            1.1325     8.8988     0.0369 C.ar    
  13 C13           -0.0678     8.1953     0.0446 C.ar    
  14 C14           -0.0608     6.8154     0.0317 C.ar    
  15 N15            1.1215    10.3012     0.0446 N.am    
  16 C16            1.1055    10.9692    -1.1209 C.2     
  17 N17            0.8560    12.2877    -1.1725 N.am    
  18 C18            0.4690    13.0279     0.0299 C.3     
  19 C19            1.2154    12.4629     1.2406 C.3     
  20 C20            1.1214    10.9575     1.2192 C.2     
  21 O21            1.3226    10.3657    -2.1534 O.2     
  22 O22            1.0497    10.3390     2.2596 O.2     
  23 C23            0.9730    12.9953    -2.4499 C.3     
  24 C24            0.8287    14.5045    -0.1471 C.3     
  25 C25           -1.0161    12.8958     0.2491 C.ar    
  26 C26           -1.5516    12.9407     1.5272 C.ar    
  27 C27           -1.8799    12.7323    -0.8230 C.ar    
  28 C28           -3.2360    12.6150    -0.5834 C.ar    
  29 N29           -3.7098    12.6575     0.6465 N.ar    
  30 C30           -2.9185    12.8165     1.6893 C.ar    
  31 F31            3.5068     8.9015     0.0151 F       
  32 F32           -1.2416     8.8640     0.0590 F       
  33 H33           -0.9584     1.9035     0.0169 H       
  34 H34           -0.9266    -0.5554     0.0083 H       
  35 H35            1.2163    -1.7630    -0.0190 H       
  36 H36            3.3399    -0.5217    -0.0318 H       
  37 H37            3.3331     1.9375    -0.0174 H       
  38 H38            3.2989     6.3039     0.0038 H       
  39 H39           -0.9929     6.2700     0.0328 H       
  40 H40            2.2614    12.7666     1.1979 H       
  41 H41            0.7625    12.8414     2.1569 H       
  42 H42            1.2680    12.2924    -3.2290 H       
  43 H43            0.0123    13.4412    -2.7076 H       
  44 H44            1.7257    13.7790    -2.3635 H       
  45 H45            1.9029    14.6004    -0.3052 H       
  46 H46            0.2971    14.9071    -1.0093 H       
  47 H47            0.5422    15.0579     0.7472 H       
  48 H48           -0.9088    13.0707     2.3852 H       
  49 H49           -1.4980    12.6974    -1.8326 H       
  50 H50           -3.9155    12.4873    -1.4131 H       
  51 H51           -3.3435    12.8504     2.6816 H       
@<TRIPOS>BOND
   1    1    2 ar
   2    1    6 ar
   3    1   33 1
   4    2    3 ar
   5    2   34 1
   6    3    4 ar
   7    3   35 1
   8    4    5 ar
   9    4   36 1
  10    5    6 ar
  11    5   37 1
  12    6    7 1
  13    7    8 3
  14    8    9 1
  15    9   10 ar
  16    9   14 ar
  17   10   11 ar
  18   10   38 1
  19   11   12 ar
  20   11   31 1
  21   12   13 ar
  22   12   15 1
  23   13   14 ar
  24   13   32 1
  25   14   39 1
  26   15   16 am
  27   15   20 am
  28   16   17 am
  29   16   21 2
  30   17   23 1
  31   17   18 1
  32   18   19 1
  33   18   24 1
  34   18   25 1
  35   19   20 1
  36   19   40 1
  37   19   41 1
  38   20   22 2
  39   23   42 1
  40   23   43 1
  41   23   44 1
  42   24   45 1
  43   24   46 1
  44   24   47 1
  45   25   27 ar
  46   25   26 ar
  47   26   30 ar
  48   26   48 1
  49   27   28 ar
  50   27   49 1
  51   28   29 ar
  52   28   50 1
  53   29   30 ar
  54   30   51 1

#	End of record

