#	Name: ASD01150745
#	Creating user name:	WinNT
#	Creation time:	15. 06. 2019 19:04

#	Modifying user name:	WinNT
#	Modification time:	15. 06. 2019 19:04

#	Program:	/corina/corina34_cracker 3.40 0067  02.08.2006

@<TRIPOS>MOLECULE
ASD01150745
  39   41    0    0    0
SMALL
NO_CHARGES


@<TRIPOS>ATOM
   1 C1            -0.0034     1.4275     0.0440 C.2     
   2 C2            -0.5038     1.0183    -1.3173 C.3     
   3 N3             3.5639     2.3089     0.4764 N.ar    
   4 C4             2.4625     1.6141     0.3654 C.ar    
   5 C5             1.2153     2.2339     0.1652 C.ar    
   6 C6             1.1520     3.6372     0.0824 C.ar    
   7 C7             2.3648     4.3595     0.2068 C.ar    
   8 C8             2.3848     5.7584     0.1348 C.ar    
   9 C9             3.5829     6.4273     0.2598 C.ar    
  10 C10            4.7721     5.7210     0.4564 C.ar    
  11 C11            4.7760     4.3617     0.5290 C.ar    
  12 C12            3.5729     3.6475     0.4067 C.ar    
  13 O13            3.6081     7.7842     0.1907 O.3     
  14 C14            4.8818     8.4173     0.3277 C.3     
  15 F15            5.7349     7.9733    -0.6883 F       
  16 F16            4.7258     9.8043     0.2328 F       
  17 F17            5.4317     8.0940     1.5728 F       
  18 C18            2.5300     0.1112     0.4540 C.3     
  19 C19           -0.1336     4.3329    -0.1275 C.ar    
  20 C20           -1.1318     4.2710     0.8481 C.ar    
  21 C21           -2.3296     4.9228     0.6470 C.ar    
  22 C22           -2.5448     5.6388    -0.5207 C.ar    
  23 C23           -1.5578     5.7037    -1.4923 C.ar    
  24 C24           -0.3541     5.0603    -1.2998 C.ar    
  25 F25           -3.7209     6.2754    -0.7127 F       
  26 F26           -1.6223     0.1904    -1.1736 F       
  27 F27           -0.8583     2.1587    -2.0461 F       
  28 F28            0.5047     0.3260    -1.9962 F       
  29 O29           -0.6116     1.0940     1.0393 O.2     
  30 H30            1.4679     6.3084    -0.0178 H       
  31 H31            5.7022     6.2615     0.5520 H       
  32 H32            5.7049     3.8321     0.6808 H       
  33 H33            2.4885    -0.1934     1.4998 H       
  34 H34            1.6875    -0.3228    -0.0845 H       
  35 H35            3.4629    -0.2374     0.0109 H       
  36 H36           -0.9654     3.7133     1.7578 H       
  37 H37           -3.1021     4.8754     1.4003 H       
  38 H38           -1.7310     6.2626    -2.4001 H       
  39 H39            0.4157     5.1153    -2.0553 H       
@<TRIPOS>BOND
   1    1    2 1
   2    1    5 1
   3    1   29 2
   4    2   26 1
   5    2   27 1
   6    2   28 1
   7    3    4 ar
   8    3   12 ar
   9    4    5 ar
  10    4   18 1
  11    5    6 ar
  12    6    7 ar
  13    6   19 1
  14    7    8 ar
  15    7   12 ar
  16    8    9 ar
  17    8   30 1
  18    9   10 ar
  19    9   13 1
  20   10   11 ar
  21   10   31 1
  22   11   12 ar
  23   11   32 1
  24   13   14 1
  25   14   15 1
  26   14   16 1
  27   14   17 1
  28   18   33 1
  29   18   34 1
  30   18   35 1
  31   19   20 ar
  32   19   24 ar
  33   20   21 ar
  34   20   36 1
  35   21   22 ar
  36   21   37 1
  37   22   23 ar
  38   22   25 1
  39   23   24 ar
  40   23   38 1
  41   24   39 1

#	End of record

