#	Name: ASD01940425
#	Creating user name:	WinNT
#	Creation time:	15. 06. 2019 20:12

#	Modifying user name:	WinNT
#	Modification time:	15. 06. 2019 20:12

#	Program:	/corina/corina34_cracker 3.40 0067  02.08.2006

@<TRIPOS>MOLECULE
ASD01940425
  48   50    0    0    0
SMALL
NO_CHARGES


@<TRIPOS>ATOM
   1 C1             0.0901     1.5564    -0.2069 C.ar    
   2 C2             0.2522     0.1747    -0.2942 C.ar    
   3 C3             1.5073    -0.3537    -0.4177 C.ar    
   4 C4             2.6217     0.4792    -0.4561 C.ar    
   5 C5             2.4751     1.8562    -0.3697 C.ar    
   6 C6             1.2110     2.4034    -0.2455 C.ar    
   7 O7             1.0269     3.7415    -0.1589 O.3     
   8 C8            -0.2006     4.2678    -0.0377 C.2     
   9 N9            -1.3138     3.5179     0.0061 N.am    
  10 C10           -1.2424     2.1697    -0.0668 C.2     
  11 C11           -2.6198     4.1677     0.1410 C.3     
  12 C12           -3.1753     4.4677    -1.2274 C.ar    
  13 C13           -3.9650     3.5334    -1.8725 C.ar    
  14 C14           -4.4766     3.8049    -3.1280 C.ar    
  15 C15           -4.2001     5.0109    -3.7420 C.ar    
  16 C16           -3.4079     5.9513    -3.0969 C.ar    
  17 C17           -2.8999     5.6776    -1.8335 C.ar    
  18 O18           -2.2465     1.4852    -0.0232 O.2     
  19 O19           -0.3103     5.4755     0.0362 O.2     
  20 O20            3.8618    -0.0599    -0.5786 O.3     
  21 C21            4.7009     0.0933     0.4640 C.2     
  22 O22            4.3678     0.7681     1.4180 O.2     
  23 N23            5.9100    -0.5020     0.4490 N.am    
  24 C24            6.8226    -0.3354     1.5828 C.3     
  25 C25            6.3117    -1.3156    -0.7012 C.3     
  26 N26           -3.1256     7.1737    -3.7164 N.am    
  27 C27           -3.9767     7.6776    -4.6319 C.2     
  28 O28           -5.0373     7.1277    -4.8415 O.2     
  29 C29           -3.6106     8.9243    -5.3953 C.3     
  30 H30           -0.6096    -0.4756    -0.2642 H       
  31 H31            1.6347    -1.4240    -0.4855 H       
  32 H32            3.3436     2.4975    -0.3994 H       
  33 H33           -3.3023     3.5047     0.6728 H       
  34 H34           -2.5073     5.0971     0.6992 H       
  35 H35           -4.1824     2.5896    -1.3946 H       
  36 H36           -5.0927     3.0730    -3.6292 H       
  37 H37           -4.5994     5.2221    -4.7230 H       
  38 H38           -2.2868     6.4086    -1.3274 H       
  39 H39            6.6448    -1.1263     2.3116 H       
  40 H40            7.8529    -0.3903     1.2312 H       
  41 H41            6.6492     0.6343     2.0494 H       
  42 H42            5.5095    -1.3228    -1.4391 H       
  43 H43            7.2123    -0.8940    -1.1477 H       
  44 H44            6.5123    -2.3353    -0.3726 H       
  45 H45           -2.3174     7.6585    -3.4869 H       
  46 H46           -2.6927     8.7502    -5.9568 H       
  47 H47           -4.4158     9.1777    -6.0849 H       
  48 H48           -3.4585     9.7468    -4.6964 H       
@<TRIPOS>BOND
   1    1    2 ar
   2    1    6 ar
   3    1   10 1
   4    2    3 ar
   5    2   30 1
   6    3    4 ar
   7    3   31 1
   8    4    5 ar
   9    4   20 1
  10    5    6 ar
  11    5   32 1
  12    6    7 1
  13    7    8 1
  14    8    9 am
  15    8   19 2
  16    9   10 am
  17    9   11 1
  18   10   18 2
  19   11   12 1
  20   11   33 1
  21   11   34 1
  22   12   13 ar
  23   12   17 ar
  24   13   14 ar
  25   13   35 1
  26   14   15 ar
  27   14   36 1
  28   15   16 ar
  29   15   37 1
  30   16   17 ar
  31   16   26 1
  32   17   38 1
  33   20   21 1
  34   21   22 2
  35   21   23 am
  36   23   24 1
  37   23   25 1
  38   24   39 1
  39   24   40 1
  40   24   41 1
  41   25   42 1
  42   25   43 1
  43   25   44 1
  44   26   27 am
  45   26   45 1
  46   27   28 2
  47   27   29 1
  48   29   46 1
  49   29   47 1
  50   29   48 1

#	End of record

