#	Name: ASD01410891
#	Creating user name:	WinNT
#	Creation time:	15. 06. 2019 19:18

#	Modifying user name:	WinNT
#	Modification time:	15. 06. 2019 19:18

#	Program:	/corina/corina34_cracker 3.40 0067  02.08.2006

@<TRIPOS>MOLECULE
ASD01410891
  74   75    0    0    0
SMALL
NO_CHARGES


@<TRIPOS>ATOM
   1 C1             0.0597     1.4038     0.3810 C.2     
   2 C2            -0.1954     0.0732     0.6092 C.2     
   3 C3             0.9165    -0.7091     0.7305 C.2     
   4 S4             2.3626     0.2738     0.5490 S.3     
   5 C5             1.3959     1.7232     0.3131 C.2     
   6 C6             1.9131     3.0197     0.0879 C.2     
   7 N7            -0.9528     2.3515     0.2251 N.am    
   8 C8            -1.5205     2.9157     1.3094 C.2     
   9 O9            -2.3370     3.8023     1.1744 O.2     
  10 C10           -1.3985     2.7332    -1.1173 C.3     
  11 C11           -2.8932     2.4400    -1.2609 C.3     
  12 C12           -1.1526     4.2049    -1.3287 C.2     
  13 N13           -1.0976     4.7062    -2.5786 N.am    
  14 O14           -1.0043     4.9382    -0.3742 O.2     
  15 C15            0.9066    -2.1208     0.9704 C.1     
  16 C16            0.8984    -3.2782     1.1672 C.1     
  17 C17            0.8882    -4.7293     1.4138 C.3     
  18 C18            2.3271    -5.2445     1.4863 C.3     
  19 C19            0.1764    -5.0167     2.7373 C.3     
  20 C20            0.1506    -5.4351     0.2742 C.3     
  21 C21           -1.1408     2.4449     2.6897 C.3     
  22 C22            0.2448     4.4993     3.0093 C.3     
  23 C23            0.2525     2.9697     3.0422 C.3     
  24 C24           -2.1563     2.9718     3.7056 C.3     
  25 C25           -2.1640     4.5015     3.6726 C.3     
  26 C26           -0.7707     5.0262     4.0252 C.3     
  27 C27           -0.7784     6.5558     3.9922 C.3     
  28 C28           -3.1266     0.9300    -1.1824 C.3     
  29 C29           -4.6300     0.6468    -1.1584 C.3     
  30 O30            3.2458     3.2312     0.1285 O.3     
  31 O31            1.1567     3.9452    -0.1425 O.2     
  32 C32           -0.8586     6.1369    -2.7842 C.3     
  33 C33           -1.2768     3.8204    -3.7316 C.3     
  34 C34           -2.4996     0.2528    -2.4027 C.3     
  35 H35           -1.1972    -0.3227     0.6870 H       
  36 H36           -0.8430     2.1615    -1.8608 H       
  37 H37           -3.4393     2.9343    -0.4575 H       
  38 H38           -3.2458     2.8126    -2.2227 H       
  39 H39            2.8526    -4.7416     2.2981 H       
  40 H40            2.3195    -6.3190     1.6689 H       
  41 H41            2.8342    -5.0397     0.5434 H       
  42 H42           -0.8487    -4.6497     2.6857 H       
  43 H43            0.1688    -6.0912     2.9199 H       
  44 H44            0.7019    -4.5138     3.5491 H       
  45 H45            0.6577    -5.2304    -0.6686 H       
  46 H46            0.1430    -6.5097     0.4569 H       
  47 H47           -0.8745    -5.0681     0.2226 H       
  48 H48           -1.1353     1.3552     2.7132 H       
  49 H49            1.2374     4.8731     3.2604 H       
  50 H50           -0.0298     4.8398     2.0109 H       
  51 H51            0.5271     2.6291     4.0406 H       
  52 H52            0.9760     2.5943     2.3185 H       
  53 H53           -3.1489     2.5980     3.4545 H       
  54 H54           -1.8817     2.6313     4.7040 H       
  55 H55           -2.4386     4.8420     2.6743 H       
  56 H56           -2.8875     4.8768     4.3964 H       
  57 H57           -0.4961     4.6857     5.0235 H       
  58 H58           -1.0530     6.8963     2.9938 H       
  59 H59           -1.5019     6.9312     4.7159 H       
  60 H60            0.2142     6.9297     4.2433 H       
  61 H61           -2.6686     0.5383    -0.2742 H       
  62 H62           -5.1015     1.1138    -2.0231 H       
  63 H63           -4.7975    -0.4297    -1.1905 H       
  64 H64           -5.0620     1.0547    -0.2446 H       
  65 H65            3.5038     4.1482    -0.0374 H       
  66 H66            0.2134     6.3190    -2.8598 H       
  67 H67           -1.3476     6.4585    -3.7037 H       
  68 H68           -1.2639     6.6976    -1.9419 H       
  69 H69           -1.4422     2.8006    -3.3841 H       
  70 H70           -2.1378     4.1503    -4.3130 H       
  71 H71           -0.3837     3.8512    -4.3557 H       
  72 H72           -2.6658    -0.8230    -2.3468 H       
  73 H73           -2.9576     0.6445    -3.3110 H       
  74 H74           -1.4285     0.4545    -2.4198 H       
@<TRIPOS>BOND
   1    1    2 1
   2    1    5 2
   3    1    7 1
   4    2    3 2
   5    2   35 1
   6    3    4 1
   7    3   15 1
   8    4    5 1
   9    5    6 1
  10    6   30 1
  11    6   31 2
  12    7    8 am
  13    7   10 1
  14    8    9 2
  15    8   21 1
  16   10   11 1
  17   10   12 1
  18   10   36 1
  19   11   28 1
  20   11   37 1
  21   11   38 1
  22   12   13 am
  23   12   14 2
  24   13   32 1
  25   13   33 1
  26   15   16 3
  27   16   17 1
  28   17   18 1
  29   17   19 1
  30   17   20 1
  31   18   39 1
  32   18   40 1
  33   18   41 1
  34   19   42 1
  35   19   43 1
  36   19   44 1
  37   20   45 1
  38   20   46 1
  39   20   47 1
  40   21   24 1
  41   21   23 1
  42   21   48 1
  43   22   23 1
  44   22   26 1
  45   22   49 1
  46   22   50 1
  47   23   51 1
  48   23   52 1
  49   24   25 1
  50   24   53 1
  51   24   54 1
  52   25   26 1
  53   25   55 1
  54   25   56 1
  55   26   27 1
  56   26   57 1
  57   27   58 1
  58   27   59 1
  59   27   60 1
  60   28   29 1
  61   28   34 1
  62   28   61 1
  63   29   62 1
  64   29   63 1
  65   29   64 1
  66   30   65 1
  67   32   66 1
  68   32   67 1
  69   32   68 1
  70   33   69 1
  71   33   70 1
  72   33   71 1
  73   34   72 1
  74   34   73 1
  75   34   74 1

#	End of record

