#	Name: ASD01917967
#	Creating user name:	WinNT
#	Creation time:	15. 06. 2019 20:10

#	Modifying user name:	WinNT
#	Modification time:	15. 06. 2019 20:10

#	Program:	/corina/corina34_cracker 3.40 0067  02.08.2006

@<TRIPOS>MOLECULE
ASD01917967
  37   40    0    0    0
SMALL
NO_CHARGES


@<TRIPOS>ATOM
   1 N1             4.8199    -0.4121    -2.1416 N.ar    
   2 C2             5.2871     0.2861    -3.1581 C.ar    
   3 C3             5.1752     1.6647    -3.1836 C.ar    
   4 C4             4.5622     2.3135    -2.1223 C.ar    
   5 C5             4.0811     1.5453    -1.0672 C.ar    
   6 C6             4.2309     0.1663    -1.1141 C.ar    
   7 O7             3.4735     2.1366    -0.0052 O.3     
   8 C8             3.4548     3.4958     0.0443 C.2     
   9 N9             2.2049     5.5090    -0.0212 N.pl3   
  10 C10            2.2723     4.1531    -0.0651 C.2     
  11 C11            4.6548     4.1968     0.2133 C.2     
  12 C12            4.6275     5.5861     0.2630 C.2     
  13 C13            3.3354     6.2597     0.1355 C.2     
  14 C14            5.8680     6.3598     0.4399 C.2     
  15 N15            5.8218     7.7060     0.4858 N.am    
  16 C16            6.9789     8.4342     0.7586 C.ar    
  17 N17            8.1390     7.8057     0.8643 N.ar    
  18 C18            6.9037     9.8137     0.9113 C.ar    
  19 C19            8.0593    10.5256     1.1815 C.ar    
  20 C20            9.2568     9.8286     1.2902 C.ar    
  21 C21            9.2578     8.4558     1.1211 C.ar    
  22 O22            6.9341     5.7839     0.5447 O.2     
  23 N23            1.1424     6.4205    -0.1066 N.2     
  24 C24            1.6577     7.6231    -0.0107 C.2     
  25 N25            2.9728     7.5327     0.1415 N.2     
  26 Cl26           5.7953     2.5717    -4.5278 Cl      
  27 F27           10.4079    10.4853     1.5526 F       
  28 H28            5.7638    -0.2252    -3.9814 H       
  29 H29            4.4611     3.3888    -2.1150 H       
  30 H30            3.8606    -0.4393    -0.3002 H       
  31 H31            1.3628     3.5842    -0.1905 H       
  32 H32            5.5903     3.6649     0.3042 H       
  33 H33            4.9836     8.1681     0.3289 H       
  34 H34            5.9559    10.3234     0.8199 H       
  35 H35            8.0313    11.5982     1.3047 H       
  36 H36           10.1860     7.9093     1.2003 H       
  37 H37            1.0965     8.5453    -0.0412 H       
@<TRIPOS>BOND
   1    1    2 ar
   2    1    6 ar
   3    2    3 ar
   4    2   28 1
   5    3    4 ar
   6    3   26 1
   7    4    5 ar
   8    4   29 1
   9    5    6 ar
  10    5    7 1
  11    6   30 1
  12    7    8 1
  13    8   11 1
  14    8   10 2
  15    9   10 1
  16    9   23 1
  17    9   13 1
  18   10   31 1
  19   11   12 2
  20   11   32 1
  21   12   13 1
  22   12   14 1
  23   13   25 2
  24   14   15 am
  25   14   22 2
  26   15   16 1
  27   15   33 1
  28   16   18 ar
  29   16   17 ar
  30   17   21 ar
  31   18   19 ar
  32   18   34 1
  33   19   20 ar
  34   19   35 1
  35   20   21 ar
  36   20   27 1
  37   21   36 1
  38   23   24 2
  39   24   25 1
  40   24   37 1

#	End of record

