#	Name: ASD03091676
#	Creating user name:	WinNT
#	Creation time:	15. 06. 2019 20:31

#	Modifying user name:	WinNT
#	Modification time:	15. 06. 2019 20:31

#	Program:	/corina/corina34_cracker 3.40 0067  02.08.2006

@<TRIPOS>MOLECULE
ASD03091676
  40   42    0    0    0
SMALL
NO_CHARGES


@<TRIPOS>ATOM
   1 Cl1            0.0000     0.0000     0.0000 Cl      
   2 H2             0.0000     1.3700     0.0000 H       
   3 C3            14.5236    10.3493     6.5723 C.ar    
   4 C4            14.5426     8.9500     6.5646 C.ar    
   5 C5            15.7665     8.2686     6.5497 C.ar    
   6 C6            16.9491     8.9712     6.5431 C.ar    
   7 C7            16.9351    10.3627     6.5507 C.ar    
   8 C8            15.7577    11.0447     6.5643 C.ar    
   9 S9            12.8924     8.3380     6.5770 S.3     
  10 C10           12.2362     9.9655     6.5921 C.2     
  11 C11           13.2201    10.8709     6.5932 C.2     
  12 C12           10.8022    10.2888     6.6070 C.2     
  13 O13           10.4406    11.4503     6.6163 O.2     
  14 N14            9.8881     9.2984     6.6105 N.am    
  15 N15            6.9510     8.8766     8.4053 N.3     
  16 C16            7.9995     9.8489     8.0683 C.3     
  17 C17            8.4590     9.6206     6.6254 C.3     
  18 C18            7.6625     8.4523     6.0312 C.3     
  19 C19            6.1695     8.8000     6.0861 C.3     
  20 C20            5.7733     9.0503     7.5439 C.3     
  21 C21            7.4617     7.5010     8.3267 C.3     
  22 C22            7.9066     7.2060     6.8915 C.3     
  23 F23           18.1021    11.0433     6.5445 F       
  24 F24           15.7854     6.9177     6.5423 F       
  25 H25           17.8904     8.4418     6.5323 H       
  26 H26           15.7642    12.1247     6.5700 H       
  27 H27           13.0250    11.9331     6.6016 H       
  28 H28           10.1764     8.3723     6.6031 H       
  29 H29            7.6039    10.8596     8.1684 H       
  30 H30            8.8452     9.7205     8.7439 H       
  31 H31            8.2796    10.5212     6.0381 H       
  32 H32            7.9686     8.2760     5.0000 H       
  33 H33            5.9817     9.6978     5.4973 H       
  34 H34            5.5864     7.9703     5.6865 H       
  35 H35            5.0000     8.3405     7.8376 H       
  36 H36            5.3932    10.0665     7.6481 H       
  37 H37            8.3109     7.3892     9.0009 H       
  38 H38            6.6746     6.8039     8.6140 H       
  39 H39            7.3304     6.3700     6.4951 H       
  40 H40            8.9679     6.9578     6.8819 H       
@<TRIPOS>BOND
   1    1    2 1
   2    3    4 ar
   3    3    8 ar
   4    3   11 1
   5    4    5 ar
   6    4    9 1
   7    5    6 ar
   8    5   24 1
   9    6    7 ar
  10    6   25 1
  11    7    8 ar
  12    7   23 1
  13    8   26 1
  14    9   10 1
  15   10   11 2
  16   10   12 1
  17   11   27 1
  18   12   13 2
  19   12   14 am
  20   14   17 1
  21   14   28 1
  22   15   16 1
  23   15   20 1
  24   15   21 1
  25   16   17 1
  26   16   29 1
  27   16   30 1
  28   17   18 1
  29   17   31 1
  30   18   19 1
  31   18   22 1
  32   18   32 1
  33   19   20 1
  34   19   33 1
  35   19   34 1
  36   20   35 1
  37   20   36 1
  38   21   22 1
  39   21   37 1
  40   21   38 1
  41   22   39 1
  42   22   40 1

#	End of record

