#	Name: ASD01910018
#	Creating user name:	WinNT
#	Creation time:	15. 06. 2019 19:55

#	Modifying user name:	WinNT
#	Modification time:	15. 06. 2019 19:55

#	Program:	/corina/corina34_cracker 3.40 0067  02.08.2006

@<TRIPOS>MOLECULE
ASD01910018
  40   43    0    0    0
SMALL
NO_CHARGES


@<TRIPOS>ATOM
   1 N1            -0.0158     1.3124     0.0093 N.2     
   2 C2             0.0021    -0.0041     0.0020 C.2     
   3 C3             1.3451    -0.4256    -0.0131 C.2     
   4 C4             2.1291     0.6845    -0.0146 C.2     
   5 N5             1.3077     1.7708    -0.0009 N.pl3   
   6 C6            -1.1880    -0.8904     0.0086 C.ar    
   7 C7            -2.4687    -0.3415     0.0233 C.ar    
   8 C8            -3.5720    -1.1706     0.0289 C.ar    
   9 C9            -3.4083    -2.5441     0.0200 C.ar    
  10 C10           -2.1393    -3.0944     0.0054 C.ar    
  11 C11           -1.0290    -2.2747    -0.0056 C.ar    
  12 C12            1.7149     3.1112     0.0020 C.ar    
  13 C13            0.9686     4.0666    -0.6751 C.ar    
  14 C14            1.3725     5.3873    -0.6700 C.ar    
  15 C15            2.5188     5.7586     0.0085 C.ar    
  16 C16            3.2645     4.8095     0.6833 C.ar    
  17 C17            2.8627     3.4881     0.6867 C.ar    
  18 N18            3.5227     0.7072    -0.0271 N.am    
  19 C19            4.2154    -0.4489    -0.0396 C.2     
  20 C20            5.6868    -0.4249    -0.0528 C.2     
  21 O21            3.6243    -1.5121    -0.0401 O.2     
  22 C22            6.4183     0.7219    -0.0527 C.2     
  23 S23            8.0871     0.3759    -0.0699 S.3     
  24 C24            7.8044    -1.3562    -0.0775 C.2     
  25 C25            6.5026    -1.6167    -0.0610 C.2     
  26 H26            1.6908    -1.4487    -0.0215 H       
  27 H27           -2.5976     0.7308     0.0306 H       
  28 H28           -4.5651    -0.7462     0.0406 H       
  29 H29           -4.2745    -3.1892     0.0248 H       
  30 H30           -2.0172    -4.1674    -0.0011 H       
  31 H31           -0.0387    -2.7054    -0.0174 H       
  32 H32            0.0734     3.7771    -1.2055 H       
  33 H33            0.7926     6.1308    -1.1967 H       
  34 H34            2.8326     6.7921     0.0110 H       
  35 H35            4.1597     5.1025     1.2117 H       
  36 H36            3.4453     2.7473     1.2142 H       
  37 H37            3.9940     1.5550    -0.0267 H       
  38 H38            5.9985     1.7170    -0.0434 H       
  39 H39            8.5815    -2.1061    -0.0893 H       
  40 H40            6.0955    -2.6170    -0.0620 H       
@<TRIPOS>BOND
   1    1    2 2
   2    1    5 1
   3    2    3 1
   4    2    6 1
   5    3    4 2
   6    3   26 1
   7    4    5 1
   8    4   18 1
   9    5   12 1
  10    6    7 ar
  11    6   11 ar
  12    7    8 ar
  13    7   27 1
  14    8    9 ar
  15    8   28 1
  16    9   10 ar
  17    9   29 1
  18   10   11 ar
  19   10   30 1
  20   11   31 1
  21   12   13 ar
  22   12   17 ar
  23   13   14 ar
  24   13   32 1
  25   14   15 ar
  26   14   33 1
  27   15   16 ar
  28   15   34 1
  29   16   17 ar
  30   16   35 1
  31   17   36 1
  32   18   19 am
  33   18   37 1
  34   19   20 1
  35   19   21 2
  36   20   22 2
  37   20   25 1
  38   22   23 1
  39   22   38 1
  40   23   24 1
  41   24   25 2
  42   24   39 1
  43   25   40 1

#	End of record

