#	Name: ASD01730017
#	Creating user name:	WinNT
#	Creation time:	15. 06. 2019 19:23

#	Modifying user name:	WinNT
#	Modification time:	15. 06. 2019 19:23

#	Program:	/corina/corina34_cracker 3.40 0067  02.08.2006

@<TRIPOS>MOLECULE
ASD01730017
  34   36    0    0    0
SMALL
NO_CHARGES


@<TRIPOS>ATOM
   1 N1            -0.0162     1.3436     0.0094 N.am    
   2 C2             0.1046     0.0182    -0.2034 C.2     
   3 S3             1.6326    -0.6512    -0.5884 S.2     
   4 N4            -0.9775    -0.7802    -0.1132 N.am    
   5 S5            -2.1763    -3.2966    -0.2471 S.3     
   6 C6            -0.8533    -2.1421    -0.3319 C.2     
   7 N7             0.2472    -2.7417    -0.6268 N.2     
   8 C8             0.2084    -4.0774    -0.8115 C.ar    
   9 C9            -1.0730    -4.6114    -0.6454 C.ar    
  10 C10            1.2649    -4.9535    -1.1378 C.ar    
  11 C11            1.0340    -6.2975    -1.2879 C.ar    
  12 C12           -0.2450    -6.8182    -1.1203 C.ar    
  13 C13           -1.2938    -5.9775    -0.8008 C.ar    
  14 O14           -0.4627    -8.1520    -1.2714 O.3     
  15 C15            0.6681    -8.9605    -1.6026 C.3     
  16 F16            1.6323    -8.8488    -0.5951 F       
  17 F17            0.2683   -10.2960    -1.7194 F       
  18 F18            1.2107    -8.5282    -2.8174 F       
  19 C19            1.1211     2.1599     0.0040 C.ar    
  20 C20            2.0712     2.0218    -0.9992 C.ar    
  21 C21            3.1925     2.8282    -1.0026 C.ar    
  22 C22            3.3698     3.7735    -0.0064 C.ar    
  23 C23            2.4237     3.9125     0.9951 C.ar    
  24 C24            1.2977     3.1127     0.9986 C.ar    
  25 F25            4.4676     4.5609    -0.0114 F       
  26 H26           -0.8916     1.7324     0.1624 H       
  27 H27           -1.8432    -0.4009     0.1049 H       
  28 H28            2.2630    -4.5631    -1.2709 H       
  29 H29            1.8520    -6.9566    -1.5385 H       
  30 H30           -2.2871    -6.3809    -0.6705 H       
  31 H31            1.9337     1.2842    -1.7759 H       
  32 H32            3.9318     2.7211    -1.7827 H       
  33 H33            2.5641     4.6501     1.7714 H       
  34 H34            0.5577     3.2247     1.7772 H       
@<TRIPOS>BOND
   1    1    2 am
   2    1   19 1
   3    1   26 1
   4    2    3 2
   5    2    4 am
   6    4    6 1
   7    4   27 1
   8    5    6 1
   9    5    9 1
  10    6    7 2
  11    7    8 1
  12    8    9 ar
  13    8   10 ar
  14    9   13 ar
  15   10   11 ar
  16   10   28 1
  17   11   12 ar
  18   11   29 1
  19   12   13 ar
  20   12   14 1
  21   13   30 1
  22   14   15 1
  23   15   16 1
  24   15   17 1
  25   15   18 1
  26   19   20 ar
  27   19   24 ar
  28   20   21 ar
  29   20   31 1
  30   21   22 ar
  31   21   32 1
  32   22   23 ar
  33   22   25 1
  34   23   24 ar
  35   23   33 1
  36   24   34 1

#	End of record

