#	Name: ASD01410868
#	Creating user name:	WinNT
#	Creation time:	15. 06. 2019 19:18

#	Modifying user name:	WinNT
#	Modification time:	15. 06. 2019 19:18

#	Program:	/corina/corina34_cracker 3.40 0067  02.08.2006

@<TRIPOS>MOLECULE
ASD01410868
 116  123    0    0    0
SMALL
NO_CHARGES


@<TRIPOS>ATOM
   1 N1             1.9965     1.8849    -2.0969 N.3     
   2 C2             1.5164    -1.8185    -1.5068 C.3     
   3 C3             1.3747    -0.4781    -2.2621 C.3     
   4 N4             2.4434    -0.5415    -3.2767 N.am    
   5 C5             2.4734    -1.9275    -3.7624 C.3     
   6 C6             1.8977    -2.8082    -2.6346 C.3     
   7 O7             2.5552    -1.7410    -0.5285 O.3     
   8 C8             1.6256    -2.0577    -5.0015 C.2     
   9 O9             1.0466    -1.0885    -5.4446 O.2     
  10 N10            1.5108    -3.2511    -5.6171 N.am    
  11 C11            1.6319     0.6934    -1.3227 C.3     
  12 C12            3.2813     1.7214    -2.7860 C.3     
  13 C13            3.2494     0.4711    -3.6312 C.2     
  14 O14            3.9456     0.3824    -4.6203 O.2     
  15 C15            3.5366     2.9351    -3.6819 C.3     
  16 C16            2.4163     3.0491    -4.7177 C.3     
  17 C17            0.6185    -3.3979    -6.7697 C.3     
  18 C18           -0.8507    -3.2298    -6.4799 C.2     
  19 N19           -1.2759    -3.0984    -5.2077 N.am    
  20 O20           -1.6506    -3.2128    -7.3914 O.2     
  21 S21           -2.8979    -3.0467    -4.8779 S.o2    
  22 C22           -3.5091    -4.6869    -5.3540 C.3     
  23 C23            1.1312    -2.9108    -8.1265 C.3     
  24 C24            1.0150    -4.4110    -7.8455 C.3     
  25 C25           -5.0182    -4.9275    -5.2794 C.3     
  26 C26           -4.3321    -4.7883    -6.6399 C.3     
  27 O27           -2.9638    -2.8798    -3.4683 O.2     
  28 O28           -3.4029    -2.0516    -5.7578 O.2     
  29 C29            0.1128    -2.2908    -9.0854 C.3     
  30 C30            0.8366    -1.7581   -10.3236 C.3     
  31 C31            2.4951    -2.6181     0.5041 C.ar    
  32 C32            3.4615    -2.5912     1.5367 C.ar    
  33 C33            1.4934    -3.5501     0.5778 C.ar    
  34 C34            1.4533    -4.4451     1.6556 C.ar    
  35 N35            2.3643    -4.4148     2.6136 N.ar    
  36 C36            3.3618    -3.5250     2.5976 C.ar    
  37 C37            0.3675    -5.4455     1.7234 C.2     
  38 S38           -0.9222    -5.6362     0.5384 S.3     
  39 C39            4.3247    -3.5031     3.6217 C.ar    
  40 C40            5.3417    -2.5756     3.5792 C.ar    
  41 C41            5.4269    -1.6564     2.5297 C.ar    
  42 C42            4.5095    -1.6596     1.5240 C.ar    
  43 Cl43           4.2319    -4.6380     4.9320 Cl      
  44 O44            6.2725    -2.5535     4.5688 O.3     
  45 C45            7.3026    -1.5681     4.4687 C.3     
  46 N46            0.2138    -6.3315     2.6657 N.2     
  47 C47           -0.8111    -7.1423     2.5615 C.2     
  48 C48           -1.5885    -6.9651     1.4855 C.2     
  49 C49           -1.0955    -8.2089     3.5874 C.3     
  50 C50           -2.1029    -7.6780     4.6093 C.3     
  51 C51           -1.6755    -9.4428     2.8931 C.3     
  52 C52            8.2494    -1.6969     5.6636 C.3     
  53 N53            8.9421    -2.9909     5.6022 N.3     
  54 C54           10.0272    -3.0551     6.5920 C.3     
  55 C55           10.6817    -4.4379     6.5349 C.3     
  56 O56           11.1465    -4.6852     5.2052 O.3     
  57 C57           10.1155    -4.6310     4.2155 C.3     
  58 C58            9.4553    -3.2501     4.2491 C.3     
  59 C59            3.5706     4.2028    -2.8259 C.3     
  60 C60            2.7350     4.1861    -5.6907 C.3     
  61 H61            1.2658     2.1308    -2.7478 H       
  62 H62            0.5717    -2.1023    -1.0432 H       
  63 H63            0.3950    -0.3993    -2.7335 H       
  64 H64            3.4996    -2.2240    -3.9798 H       
  65 H65            2.6514    -3.5121    -2.2818 H       
  66 H66            1.0142    -3.3420    -2.9846 H       
  67 H67            2.0190    -4.0128    -5.2971 H       
  68 H68            2.4456     0.4404    -0.6431 H       
  69 H69            0.7305     0.8989    -0.7453 H       
  70 H70            4.0805     1.6409    -2.0492 H       
  71 H71            4.4924     2.8155    -4.1921 H       
  72 H72            2.3340     2.1120    -5.2684 H       
  73 H73            1.4735     3.2573    -4.2119 H       
  74 H74           -0.6318    -3.0340    -4.4853 H       
  75 H75           -2.8535    -5.5224    -5.1085 H       
  76 H76            2.1323    -2.4811    -8.1616 H       
  77 H77            1.9398    -4.9682    -7.6959 H       
  78 H78            0.2131    -4.9558    -8.3439 H       
  79 H79           -5.3555    -5.9213    -4.9852 H       
  80 H80           -5.6438    -4.1002    -4.9443 H       
  81 H81           -4.5062    -3.8694    -7.1997 H       
  82 H82           -4.2179    -5.6905    -7.2406 H       
  83 H83           -0.6114    -3.0482    -9.3856 H       
  84 H84           -0.4043    -1.4714    -8.5861 H       
  85 H85            0.1111    -1.3164   -11.0067 H       
  86 H86            1.5608    -1.0008   -10.0233 H       
  87 H87            1.3537    -2.5776   -10.8228 H       
  88 H88            0.7371    -3.5947    -0.1919 H       
  89 H89            6.2322    -0.9370     2.5148 H       
  90 H90            4.5871    -0.9438     0.7191 H       
  91 H91            7.8609    -1.7188     3.5447 H       
  92 H92            6.8554    -0.5741     4.4649 H       
  93 H93           -2.4704    -7.5381     1.2398 H       
  94 H94           -0.1703    -8.4796     4.0962 H       
  95 H95           -3.0281    -7.4073     4.1006 H       
  96 H96           -2.3086    -8.4495     5.3514 H       
  97 H97           -1.6897    -6.7990     5.1040 H       
  98 H98           -1.8812   -10.2142     3.6351 H       
  99 H99           -2.6007    -9.1721     2.3844 H       
 100 H100          -0.9578    -9.8210     2.1651 H       
 101 H101           8.9824    -0.8907     5.6349 H       
 102 H102           7.6770    -1.6348     6.5891 H       
 103 H103          10.7710    -2.2908     6.3668 H       
 104 H104           9.6208    -2.8857     7.5891 H       
 105 H105          11.5233    -4.4711     7.2267 H       
 106 H106           9.9514    -5.1980     6.8124 H       
 107 H107          10.5477    -4.8039     3.2299 H       
 108 H108           9.3687    -5.3967     4.4256 H       
 109 H109           8.6313    -3.2231     3.5360 H       
 110 H110          10.1899    -2.4890     3.9865 H       
 111 H111           2.5837     4.3786    -2.3977 H       
 112 H112           4.2981     4.0800    -2.0236 H       
 113 H113           3.8540     5.0528    -3.4465 H       
 114 H114           2.8174     5.1231    -5.1400 H       
 115 H115           3.6778     3.9779    -6.1966 H       
 116 H116           1.9369     4.2673    -6.4286 H       
@<TRIPOS>BOND
   1    1   11 1
   2    1   12 1
   3    1   61 1
   4    2    3 1
   5    2    7 1
   6    2    6 1
   7    2   62 1
   8    3    4 1
   9    3   11 1
  10    3   63 1
  11    4    5 1
  12    4   13 am
  13    5    6 1
  14    5    8 1
  15    5   64 1
  16    6   65 1
  17    6   66 1
  18    7   31 1
  19    8    9 2
  20    8   10 am
  21   10   17 1
  22   10   67 1
  23   11   68 1
  24   11   69 1
  25   12   13 1
  26   12   15 1
  27   12   70 1
  28   13   14 2
  29   15   16 1
  30   15   59 1
  31   15   71 1
  32   16   60 1
  33   16   72 1
  34   16   73 1
  35   17   18 1
  36   17   23 1
  37   17   24 1
  38   18   19 am
  39   18   20 2
  40   19   21 am
  41   19   74 1
  42   21   22 1
  43   21   27 2
  44   21   28 2
  45   22   25 1
  46   22   26 1
  47   22   75 1
  48   23   24 1
  49   23   29 1
  50   23   76 1
  51   24   77 1
  52   24   78 1
  53   25   26 1
  54   25   79 1
  55   25   80 1
  56   26   81 1
  57   26   82 1
  58   29   30 1
  59   29   83 1
  60   29   84 1
  61   30   85 1
  62   30   86 1
  63   30   87 1
  64   31   32 ar
  65   31   33 ar
  66   32   36 ar
  67   32   42 ar
  68   33   34 ar
  69   33   88 1
  70   34   35 ar
  71   34   37 1
  72   35   36 ar
  73   36   39 ar
  74   37   46 2
  75   37   38 1
  76   38   48 1
  77   39   40 ar
  78   39   43 1
  79   40   41 ar
  80   40   44 1
  81   41   42 ar
  82   41   89 1
  83   42   90 1
  84   44   45 1
  85   45   52 1
  86   45   91 1
  87   45   92 1
  88   46   47 1
  89   47   48 2
  90   47   49 1
  91   48   93 1
  92   49   50 1
  93   49   51 1
  94   49   94 1
  95   50   95 1
  96   50   96 1
  97   50   97 1
  98   51   98 1
  99   51   99 1
 100   51  100 1
 101   52   53 1
 102   52  101 1
 103   52  102 1
 104   53   54 1
 105   53   58 1
 106   54   55 1
 107   54  103 1
 108   54  104 1
 109   55   56 1
 110   55  105 1
 111   55  106 1
 112   56   57 1
 113   57   58 1
 114   57  107 1
 115   57  108 1
 116   58  109 1
 117   58  110 1
 118   59  111 1
 119   59  112 1
 120   59  113 1
 121   60  114 1
 122   60  115 1
 123   60  116 1

#	End of record

