#	Name: ASD03090875
#	Creating user name:	WinNT
#	Creation time:	15. 06. 2019 20:29

#	Modifying user name:	WinNT
#	Modification time:	15. 06. 2019 20:29

#	Program:	/corina/corina34_cracker 3.40 0067  02.08.2006

@<TRIPOS>MOLECULE
ASD03090875
  46   49    0    0    0
SMALL
NO_CHARGES


@<TRIPOS>ATOM
   1 N1            -0.0153     1.3320     0.0571 N.2     
   2 C2             0.0031    -0.0039     0.0706 C.2     
   3 O3             1.0668    -0.5989     0.0536 O.2     
   4 N4            -1.1544    -0.6935     0.1029 N.am    
   5 C5            -1.1341    -2.1583     0.1177 C.3     
   6 C6            -0.9701    -2.6516     1.5566 C.3     
   7 C7            -2.4275    -2.6843    -0.4493 C.ar    
   8 C8            -2.4191    -3.7877    -1.2819 C.ar    
   9 C9            -3.6056    -4.2702    -1.8021 C.ar    
  10 C10           -4.8004    -3.6494    -1.4893 C.ar    
  11 C11           -4.8089    -2.5465    -0.6559 C.ar    
  12 C12           -3.6230    -2.0667    -0.1323 C.ar    
  13 S13            2.7229     1.3646    -0.0035 S.3     
  14 C14            1.1278     2.0130     0.0251 C.2     
  15 N15            1.2769     3.3616     0.0079 N.pl3   
  16 C16            2.5513     3.8402    -0.0253 C.2     
  17 C17            3.5279     2.9428    -0.0376 C.2     
  18 C18            5.0107     3.2094    -0.0732 C.3     
  19 O19           -3.2352     6.5418     0.0475 O.3     
  20 C20           -4.1880     5.5034     0.3424 C.3     
  21 O21           -3.5467     4.3053    -0.1334 O.3     
  22 C22           -2.2066     4.5537    -0.0563 C.ar    
  23 C23           -2.0144     5.9293     0.0550 C.ar    
  24 C24           -1.1141     3.7035    -0.0723 C.ar    
  25 C25            0.1702     4.2224     0.0231 C.ar    
  26 C26            0.3585     5.5931     0.1339 C.ar    
  27 C27           -0.7313     6.4428     0.1494 C.ar    
  28 F28           -4.4178     5.4239     1.7201 F       
  29 F29           -5.3860     5.7259    -0.3450 F       
  30 H30           -2.0008    -0.2200     0.1165 H       
  31 H31           -0.3004    -2.5163    -0.4864 H       
  32 H32           -1.8038    -2.2937     2.1607 H       
  33 H33           -0.9551    -3.7415     1.5676 H       
  34 H34           -0.0346    -2.2712     1.9667 H       
  35 H35           -1.4856    -4.2727    -1.5264 H       
  36 H36           -3.5989    -5.1318    -2.4532 H       
  37 H37           -5.7273    -4.0259    -1.8962 H       
  38 H38           -5.7424    -2.0614    -0.4118 H       
  39 H39           -3.6300    -1.2073     0.5217 H       
  40 H40            2.7571     4.9003    -0.0411 H       
  41 H41            5.5502     2.2623    -0.0758 H       
  42 H42            5.2575     3.7706    -0.9745 H       
  43 H43            5.2970     3.7882     0.8050 H       
  44 H44           -1.2609     2.6370    -0.1581 H       
  45 H45            1.3578     5.9960     0.2083 H       
  46 H46           -0.5824     7.5090     0.2357 H       
@<TRIPOS>BOND
   1    1    2 1
   2    1   14 2
   3    2    3 2
   4    2    4 am
   5    4    5 1
   6    4   30 1
   7    5    6 1
   8    5    7 1
   9    5   31 1
  10    6   32 1
  11    6   33 1
  12    6   34 1
  13    7    8 ar
  14    7   12 ar
  15    8    9 ar
  16    8   35 1
  17    9   10 ar
  18    9   36 1
  19   10   11 ar
  20   10   37 1
  21   11   12 ar
  22   11   38 1
  23   12   39 1
  24   13   14 1
  25   13   17 1
  26   14   15 1
  27   15   16 1
  28   15   25 1
  29   16   17 2
  30   16   40 1
  31   17   18 1
  32   18   41 1
  33   18   42 1
  34   18   43 1
  35   19   20 1
  36   19   23 1
  37   20   21 1
  38   20   28 1
  39   20   29 1
  40   21   22 1
  41   22   23 ar
  42   22   24 ar
  43   23   27 ar
  44   24   25 ar
  45   24   44 1
  46   25   26 ar
  47   26   27 ar
  48   26   45 1
  49   27   46 1

#	End of record

