#	Name: ASD01900540
#	Creating user name:	WinNT
#	Creation time:	15. 06. 2019 19:52

#	Modifying user name:	WinNT
#	Modification time:	15. 06. 2019 19:52

#	Program:	/corina/corina34_cracker 3.40 0067  02.08.2006

@<TRIPOS>MOLECULE
ASD01900540
  40   43    0    0    0
SMALL
NO_CHARGES


@<TRIPOS>ATOM
   1 C1            -0.0159     1.2245    -0.0293 C.2     
   2 O2             0.6396     1.0148     0.9733 O.2     
   3 C3             0.4729     0.7562    -1.3432 C.ar    
   4 C4            -0.3170     0.9176    -2.4837 C.ar    
   5 C5             0.1452     0.4783    -3.7065 C.ar    
   6 C6             1.3887    -0.1214    -3.8050 C.ar    
   7 C7             2.1762    -0.2848    -2.6792 C.ar    
   8 C8             1.7288     0.1556    -1.4508 C.ar    
   9 C9            -0.7058     0.6511    -4.9381 C.3     
  10 F10           -0.4182     1.8835    -5.5345 F       
  11 F11           -0.4316    -0.3802    -5.8429 F       
  12 F12           -2.0576     0.6103    -4.5803 F       
  13 C13           -1.3002     1.9400     0.0666 C.ar    
  14 C14           -2.5065     1.2334    -0.0252 C.ar    
  15 C15           -3.7034     1.9092     0.0652 C.ar    
  16 C16           -3.7099     3.2896     0.2473 C.ar    
  17 C17           -2.5093     3.9895     0.3378 C.ar    
  18 C18           -1.3185     3.3262     0.2553 C.ar    
  19 N19           -4.9188     3.9714     0.3386 N.pl3   
  20 C20           -7.4225     3.8603     0.8333 C.ar    
  21 C21           -8.2353     2.8425     1.3539 C.ar    
  22 C22           -9.5986     3.0792     1.5087 C.ar    
  23 C23          -10.0948     4.3159     1.1399 C.ar    
  24 C24           -9.2315     5.2758     0.6317 C.ar    
  25 N25           -7.9471     5.0323     0.4934 N.ar    
  26 O26           -7.4435     1.7815     1.6048 O.3     
  27 N27           -6.1112     2.0951     1.2517 N.2     
  28 C28           -6.0563     3.3117     0.7868 C.2     
  29 Cl29          -2.4928    -0.4876    -0.2528 Cl      
  30 H30           -1.2877     1.3850    -2.4081 H       
  31 H31            1.7459    -0.4636    -4.7651 H       
  32 H32            3.1453    -0.7542    -2.7631 H       
  33 H33            2.3467     0.0321    -0.5736 H       
  34 H34           -4.6359     1.3689    -0.0053 H       
  35 H35           -2.5200     5.0603     0.4786 H       
  36 H36           -0.3901     3.8726     0.3312 H       
  37 H37           -4.9677     4.9076     0.0893 H       
  38 H38          -10.2517     2.3164     1.9063 H       
  39 H39          -11.1474     4.5331     1.2464 H       
  40 H40           -9.6219     6.2410     0.3444 H       
@<TRIPOS>BOND
   1    1    2 2
   2    1    3 1
   3    1   13 1
   4    3    4 ar
   5    3    8 ar
   6    4    5 ar
   7    4   30 1
   8    5    6 ar
   9    5    9 1
  10    6    7 ar
  11    6   31 1
  12    7    8 ar
  13    7   32 1
  14    8   33 1
  15    9   10 1
  16    9   11 1
  17    9   12 1
  18   13   14 ar
  19   13   18 ar
  20   14   15 ar
  21   14   29 1
  22   15   16 ar
  23   15   34 1
  24   16   17 ar
  25   16   19 1
  26   17   18 ar
  27   17   35 1
  28   18   36 1
  29   19   28 1
  30   19   37 1
  31   20   21 ar
  32   20   25 ar
  33   20   28 1
  34   21   22 ar
  35   21   26 1
  36   22   23 ar
  37   22   38 1
  38   23   24 ar
  39   23   39 1
  40   24   25 ar
  41   24   40 1
  42   26   27 1
  43   27   28 2

#	End of record

