#	Name: ASD01811176
#	Creating user name:	WinNT
#	Creation time:	15. 06. 2019 19:26

#	Modifying user name:	WinNT
#	Modification time:	15. 06. 2019 19:26

#	Program:	/corina/corina34_cracker 3.40 0067  02.08.2006

@<TRIPOS>MOLECULE
ASD01811176
  33   35    0    0    0
SMALL
NO_CHARGES


@<TRIPOS>ATOM
   1 C1             0.1819     0.0068    -0.1178 C.1     
   2 C2             0.0711     1.4329    -0.0497 C.ar    
   3 C3             1.2067     2.2133     0.1830 C.ar    
   4 C4             1.1014     3.5881     0.2494 C.ar    
   5 C5            -0.1249     4.2019     0.0865 C.ar    
   6 C6            -1.2683     3.4342    -0.1467 C.ar    
   7 C7            -1.1686     2.0461    -0.2211 C.ar    
   8 N8             0.2698    -1.1245    -0.1717 N.1     
   9 C9             2.5492     1.5526     0.3624 C.3     
  10 C10           -0.2299     5.7033     0.1612 C.3     
  11 C11            0.3142     6.2945     1.4724 C.3     
  12 C12            0.9103     7.4286     0.6219 C.3     
  13 C13            0.9168     6.4373    -0.5538 C.3     
  14 O14           -3.4778     3.8429    -1.2981 O.3     
  15 C15           -2.5799     4.0928    -0.3197 C.2     
  16 N16           -3.0866     5.0264     0.4479 N.2     
  17 N17           -4.2438     5.3665     0.0001 N.2     
  18 C18           -4.5214     4.6625    -1.0721 C.2     
  19 N19           -5.6729     4.7471    -1.8295 N.pl3   
  20 H20            1.9821     4.1866     0.4298 H       
  21 H21           -2.0487     1.4481    -0.4057 H       
  22 H22            3.0383     1.4544    -0.6067 H       
  23 H23            3.1682     2.1608     1.0219 H       
  24 H24            2.4120     0.5645     0.8019 H       
  25 H25           -1.2201     6.0722    -0.1063 H       
  26 H26           -0.4652     6.6265     2.1582 H       
  27 H27            1.0655     5.6692     1.9546 H       
  28 H28            0.2324     8.2702     0.4796 H       
  29 H29            1.9067     7.7354     0.9399 H       
  30 H30            1.8329     5.8510    -0.6255 H       
  31 H31            0.6239     6.8846    -1.5036 H       
  32 H32           -5.7837     4.1801    -2.6087 H       
  33 H33           -6.3711     5.3735    -1.5824 H       
@<TRIPOS>BOND
   1    1    2 1
   2    1    8 3
   3    2    3 ar
   4    2    7 ar
   5    3    4 ar
   6    3    9 1
   7    4    5 ar
   8    4   20 1
   9    5    6 ar
  10    5   10 1
  11    6    7 ar
  12    6   15 1
  13    7   21 1
  14    9   22 1
  15    9   23 1
  16    9   24 1
  17   10   11 1
  18   10   13 1
  19   10   25 1
  20   11   12 1
  21   11   26 1
  22   11   27 1
  23   12   13 1
  24   12   28 1
  25   12   29 1
  26   13   30 1
  27   13   31 1
  28   14   15 1
  29   14   18 1
  30   15   16 2
  31   16   17 1
  32   17   18 2
  33   18   19 1
  34   19   32 1
  35   19   33 1

#	End of record

