#	Name: ASD04880150
#	Creating user name:	WinNT
#	Creation time:	15. 06. 2019 20:52

#	Modifying user name:	WinNT
#	Modification time:	15. 06. 2019 20:52

#	Program:	/corina/corina34_cracker 3.40 0067  02.08.2006

@<TRIPOS>MOLECULE
ASD04880150
  48   50    0    0    0
SMALL
NO_CHARGES


@<TRIPOS>ATOM
   1 C1            -2.5153     4.1559     0.1943 C.1     
   2 C2            -1.2569     3.4765     0.1208 C.ar    
   3 C3            -0.0693     4.2060     0.0987 C.ar    
   4 C4             1.1505     3.5368     0.0270 C.ar    
   5 C5             1.1761     2.1407    -0.0223 C.ar    
   6 C6            -0.0038     1.4242    -0.0006 C.ar    
   7 C7            -1.2163     2.0806     0.0767 C.ar    
   8 N8            -3.5136     4.6949     0.2527 N.1     
   9 C9             2.4148     4.3021     0.0026 C.2     
  10 O10            3.4798     3.7189     0.0676 O.2     
  11 N11            2.3872     5.6463    -0.0916 N.am    
  12 N12            1.2460     6.4219    -0.2852 N.2     
  13 C13            1.4741     7.6888    -0.3425 C.2     
  14 C14            2.9552     7.9433    -0.1764 C.3     
  15 C15            3.5566     6.5349    -0.0004 C.3     
  16 C16            3.5257     8.6244    -1.4221 C.3     
  17 C17            3.2174     8.7926     1.0689 C.3     
  18 C18            0.4490     8.7296    -0.5397 C.ar    
  19 C19           -0.8947     8.3717    -0.6813 C.ar    
  20 C20           -1.8515     9.3515    -0.8660 C.ar    
  21 C21           -1.4759    10.6928    -0.9111 C.ar    
  22 C22           -0.1427    11.0484    -0.7707 C.ar    
  23 C23            0.8173    10.0765    -0.5798 C.ar    
  24 O24           -2.4186    11.6550    -1.0938 O.3     
  25 C25           -1.9646    13.0095    -1.1301 C.3     
  26 O26           -3.1598     9.0068    -1.0041 O.3     
  27 C27           -3.4730     7.6137    -0.9482 C.3     
  28 H28           -0.0947     5.2850     0.1367 H       
  29 H29            2.1211     1.6208    -0.0779 H       
  30 H30            0.0218     0.3452    -0.0393 H       
  31 H31           -2.1354     1.5139     0.0983 H       
  32 H32            4.0359     6.4394     0.9739 H       
  33 H33            4.2651     6.3197    -0.8003 H       
  34 H34            3.0369     9.5880    -1.5654 H       
  35 H35            4.5975     8.7761    -1.2944 H       
  36 H36            3.3492     7.9942    -2.2937 H       
  37 H37            2.8244     8.2806     1.9472 H       
  38 H38            4.2905     8.9437     1.1863 H       
  39 H39            2.7243     9.7586     0.9604 H       
  40 H40           -1.1844     7.3319    -0.6469 H       
  41 H41            0.1439    12.0890    -0.8067 H       
  42 H42            1.8542    10.3565    -0.4662 H       
  43 H43           -1.4752    13.2540    -0.1873 H       
  44 H44           -1.2568    13.1335    -1.9497 H       
  45 H45           -2.8153    13.6739    -1.2810 H       
  46 H46           -4.5474     7.4776    -1.0716 H       
  47 H47           -2.9464     7.0906    -1.7464 H       
  48 H48           -3.1640     7.2102     0.0161 H       
@<TRIPOS>BOND
   1    1    2 1
   2    1    8 3
   3    2    3 ar
   4    2    7 ar
   5    3    4 ar
   6    3   28 1
   7    4    5 ar
   8    4    9 1
   9    5    6 ar
  10    5   29 1
  11    6    7 ar
  12    6   30 1
  13    7   31 1
  14    9   10 2
  15    9   11 am
  16   11   12 1
  17   11   15 1
  18   12   13 2
  19   13   14 1
  20   13   18 1
  21   14   15 1
  22   14   16 1
  23   14   17 1
  24   15   32 1
  25   15   33 1
  26   16   34 1
  27   16   35 1
  28   16   36 1
  29   17   37 1
  30   17   38 1
  31   17   39 1
  32   18   19 ar
  33   18   23 ar
  34   19   20 ar
  35   19   40 1
  36   20   21 ar
  37   20   26 1
  38   21   22 ar
  39   21   24 1
  40   22   23 ar
  41   22   41 1
  42   23   42 1
  43   24   25 1
  44   25   43 1
  45   25   44 1
  46   25   45 1
  47   26   27 1
  48   27   46 1
  49   27   47 1
  50   27   48 1

#	End of record

