#	Name: ASD05940118
#	Creating user name:	WinNT
#	Creation time:	15. 06. 2019 21:04

#	Modifying user name:	WinNT
#	Modification time:	15. 06. 2019 21:04

#	Program:	/corina/corina34_cracker 3.40 0067  02.08.2006

@<TRIPOS>MOLECULE
ASD05940118
  67   69    0    0    0
SMALL
NO_CHARGES


@<TRIPOS>ATOM
   1 O1             0.6469    -2.1233     1.5772 O.3     
   2 C2            -0.5550    -1.9977     0.8145 C.3     
   3 C3            -0.9818    -0.5290     0.7734 C.3     
   4 N4            -1.3426    -0.0859     2.1267 N.3     
   5 C5            -1.3899     1.3803     2.2054 C.3     
   6 C6            -2.6183    -0.6773     2.5517 C.3     
   7 C7            -2.8352    -0.4038     4.0177 C.2     
   8 C8            -3.4868     0.7088     4.5597 C.2     
   9 C9            -4.0958     1.8439     3.7776 C.3     
  10 C10           -2.4389    -1.1942     5.0421 C.2     
  11 N11           -2.8210    -0.5998     6.1918 N.pl3   
  12 N12           -3.4770     0.5934     5.8629 N.2     
  13 C13           -1.7035    -2.5039     4.9208 C.3     
  14 C14           -0.3092    -2.4974    -0.6106 C.3     
  15 O15           -0.0243    -3.8974    -0.5819 O.3     
  16 C16            0.2198    -4.5024    -1.7750 C.ar    
  17 C17            0.5033    -5.8593    -1.8194 C.ar    
  18 C18            0.7513    -6.4738    -3.0314 C.ar    
  19 C19            0.7164    -5.7339    -4.2040 C.ar    
  20 C20            0.4321    -4.3771    -4.1597 C.ar    
  21 C21            0.1798    -3.7635    -2.9482 C.ar    
  22 C22           -2.5935    -1.1137     7.5447 C.3     
  23 C23           -1.2757    -0.5980     8.0629 C.ar    
  24 C24           -1.2257     0.5961     8.7575 C.ar    
  25 C25           -0.0169     1.0692     9.2328 C.ar    
  26 C26            1.1419     0.3479     9.0139 C.ar    
  27 C27            1.0918    -0.8466     8.3201 C.ar    
  28 C28           -0.1177    -1.3219     7.8485 C.ar    
  29 C29            0.7810    -3.3777     2.2483 C.3     
  30 O30            0.9615    -6.3386    -5.3971 O.3     
  31 C31            1.2089    -6.3654    -7.8010 C.3     
  32 C32            0.9089    -5.5159    -6.5643 C.3     
  33 H33           -1.3427    -2.5922     1.2772 H       
  34 H34           -0.1576     0.0786     0.3998 H       
  35 H35           -1.8424    -0.4191     0.1135 H       
  36 H36           -2.2013     1.7518     1.5796 H       
  37 H37           -1.5599     1.6833     3.2385 H       
  38 H38           -0.4436     1.7936     1.8566 H       
  39 H39           -3.4325    -0.2375     1.9757 H       
  40 H40           -2.5939    -1.7539     2.3826 H       
  41 H41           -5.1367     1.6122     3.5516 H       
  42 H42           -4.0472     2.7590     4.3678 H       
  43 H43           -3.5441     1.9816     2.8477 H       
  44 H44           -0.6292    -2.3197     4.9304 H       
  45 H45           -1.9690    -3.1487     5.7585 H       
  46 H46           -1.9803    -2.9908     3.9856 H       
  47 H47           -1.1979    -2.3199    -1.2162 H       
  48 H48            0.5372    -1.9631    -1.0421 H       
  49 H49            0.5305    -6.4355    -0.9063 H       
  50 H50            0.9727    -7.5303    -3.0659 H       
  51 H51            0.4049    -3.8010    -5.0728 H       
  52 H52           -0.0416    -2.7070    -2.9136 H       
  53 H53           -3.3976    -0.7794     8.2003 H       
  54 H54           -2.5732    -2.2032     7.5209 H       
  55 H55           -2.1310     1.1597     8.9286 H       
  56 H56            0.0223     2.0025     9.7749 H       
  57 H57            2.0864     0.7179     9.3846 H       
  58 H58            1.9971    -1.4100     8.1487 H       
  59 H59           -0.1568    -2.2551     7.3065 H       
  60 H60            1.7183    -3.3939     2.8045 H       
  61 H61           -0.0528    -3.5121     2.9374 H       
  62 H62            0.7798    -4.1841     1.5149 H       
  63 H63            0.4684    -7.1610    -7.8836 H       
  64 H64            1.1688    -5.7379    -8.6913 H       
  65 H65            2.2032    -6.8025    -7.7090 H       
  66 H66           -0.0854    -5.0788    -6.6563 H       
  67 H67            1.6494    -4.7203    -6.4817 H       
@<TRIPOS>BOND
   1    1    2 1
   2    1   29 1
   3    2    3 1
   4    2   14 1
   5    2   33 1
   6    3    4 1
   7    3   34 1
   8    3   35 1
   9    4    5 1
  10    4    6 1
  11    5   36 1
  12    5   37 1
  13    5   38 1
  14    6    7 1
  15    6   39 1
  16    6   40 1
  17    7    8 1
  18    7   10 2
  19    8    9 1
  20    8   12 2
  21    9   41 1
  22    9   42 1
  23    9   43 1
  24   10   11 1
  25   10   13 1
  26   11   12 1
  27   11   22 1
  28   13   44 1
  29   13   45 1
  30   13   46 1
  31   14   15 1
  32   14   47 1
  33   14   48 1
  34   15   16 1
  35   16   17 ar
  36   16   21 ar
  37   17   18 ar
  38   17   49 1
  39   18   19 ar
  40   18   50 1
  41   19   20 ar
  42   19   30 1
  43   20   21 ar
  44   20   51 1
  45   21   52 1
  46   22   23 1
  47   22   53 1
  48   22   54 1
  49   23   24 ar
  50   23   28 ar
  51   24   25 ar
  52   24   55 1
  53   25   26 ar
  54   25   56 1
  55   26   27 ar
  56   26   57 1
  57   27   28 ar
  58   27   58 1
  59   28   59 1
  60   29   60 1
  61   29   61 1
  62   29   62 1
  63   30   32 1
  64   31   32 1
  65   31   63 1
  66   31   64 1
  67   31   65 1
  68   32   66 1
  69   32   67 1

#	End of record

