#	Name: ASD04910239
#	Creating user name:	WinNT
#	Creation time:	15. 06. 2019 20:55

#	Modifying user name:	WinNT
#	Modification time:	15. 06. 2019 20:55

#	Program:	/corina/corina34_cracker 3.40 0067  02.08.2006

@<TRIPOS>MOLECULE
ASD04910239
  65   67    0    0    0
SMALL
NO_CHARGES


@<TRIPOS>ATOM
   1 C1            -0.4105     1.4010     0.2916 C.2     
   2 C2            -0.3263    -0.1032     0.2530 C.3     
   3 C3             1.1400    -0.5297     0.1592 C.3     
   4 O4             0.5988     2.0638     0.2485 O.2     
   5 O5            -1.6070     2.0045     0.3682 O.3     
   6 C6             2.4229    -2.5977     0.0392 C.2     
   7 C7             2.5055    -4.0734     0.0014 C.ar    
   8 C8             3.7478    -4.7039    -0.0841 C.ar    
   9 C9             3.8179    -6.0813    -0.1185 C.ar    
  10 C10            2.6602    -6.8374    -0.0690 C.ar    
  11 C11            1.4256    -6.2186     0.0158 C.ar    
  12 C12            1.3419    -4.8422     0.0568 C.ar    
  13 O13            3.4383    -1.9309    -0.0042 O.2     
  14 N14            1.2219    -1.9919     0.1218 N.am    
  15 C15            2.7444    -8.3415    -0.1080 C.3     
  16 C16            2.6049    -8.8971     1.3107 C.3     
  17 C17            2.8145   -10.4125     1.2879 C.3     
  18 C18            2.6751   -10.9681     2.7066 C.3     
  19 O19            1.6924    -8.8564    -0.9267 O.3     
  20 C20            1.9560    -9.9895    -1.6301 C.ar    
  21 C21            3.2252   -10.5486    -1.5941 C.ar    
  22 C22            3.4934   -11.6994    -2.3083 C.ar    
  23 C23            2.4927   -12.2973    -3.0623 C.ar    
  24 C24            1.2226   -11.7376    -3.0976 C.ar    
  25 C25            0.9542   -10.5895    -2.3792 C.ar    
  26 N26            2.7648   -13.4664    -3.7886 N.pl3   
  27 N27            2.2453   -13.7960    -5.0470 N.2     
  28 C28            2.7269   -14.9605    -5.4003 C.2     
  29 C29            3.5702   -15.4173    -4.3828 C.2     
  30 C30            3.5843   -14.4787    -3.3992 C.2     
  31 C31            2.4233   -15.6864    -6.6855 C.3     
  32 O32            4.2863   -14.5422    -2.2389 O.3     
  33 C33            5.1732   -15.6509    -2.0771 C.3     
  34 C34            5.7793   -15.6184    -0.6727 C.3     
  35 H35           -0.7672    -0.5151     1.1608 H       
  36 H36           -0.8693    -0.4753    -0.6158 H       
  37 H37            1.5809    -0.1177    -0.7485 H       
  38 H38            1.6829    -0.1575     1.0281 H       
  39 H39           -1.6105     2.9712     0.3904 H       
  40 H40            4.6521    -4.1149    -0.1236 H       
  41 H41            4.7785    -6.5704    -0.1847 H       
  42 H42            0.5257    -6.8146     0.0542 H       
  43 H43            0.3778    -4.3605     0.1275 H       
  44 H44            0.4116    -2.5241     0.1564 H       
  45 H45            3.7070    -8.6409    -0.5225 H       
  46 H46            3.3527    -8.4366     1.9564 H       
  47 H47            1.6085    -8.6738     1.6921 H       
  48 H48            2.0668   -10.8730     0.6422 H       
  49 H49            3.8109   -10.6358     0.9066 H       
  50 H50            2.8244   -12.0477     2.6904 H       
  51 H51            3.4228   -10.5076     3.3523 H       
  52 H52            1.6787   -10.7448     3.0880 H       
  53 H53            4.0036   -10.0834    -1.0075 H       
  54 H54            4.4817   -12.1342    -2.2807 H       
  55 H55            0.4439   -12.2022    -3.6843 H       
  56 H56           -0.0348   -10.1562    -2.4036 H       
  57 H57            4.1168   -16.3488    -4.3805 H       
  58 H58            3.1469   -15.3954    -7.4469 H       
  59 H59            2.4843   -16.7618    -6.5184 H       
  60 H60            1.4190   -15.4272    -7.0207 H       
  61 H61            4.6210   -16.5808    -2.2131 H       
  62 H62            5.9701   -15.5898    -2.8182 H       
  63 H63            6.3315   -14.6885    -0.5367 H       
  64 H64            4.9824   -15.6795     0.0685 H       
  65 H65            6.4559   -16.4641    -0.5492 H       
@<TRIPOS>BOND
   1    1    2 1
   2    1    4 2
   3    1    5 1
   4    2    3 1
   5    2   35 1
   6    2   36 1
   7    3   14 1
   8    3   37 1
   9    3   38 1
  10    5   39 1
  11    6    7 1
  12    6   13 2
  13    6   14 am
  14    7    8 ar
  15    7   12 ar
  16    8    9 ar
  17    8   40 1
  18    9   10 ar
  19    9   41 1
  20   10   11 ar
  21   10   15 1
  22   11   12 ar
  23   11   42 1
  24   12   43 1
  25   14   44 1
  26   15   16 1
  27   15   19 1
  28   15   45 1
  29   16   17 1
  30   16   46 1
  31   16   47 1
  32   17   18 1
  33   17   48 1
  34   17   49 1
  35   18   50 1
  36   18   51 1
  37   18   52 1
  38   19   20 1
  39   20   21 ar
  40   20   25 ar
  41   21   22 ar
  42   21   53 1
  43   22   23 ar
  44   22   54 1
  45   23   24 ar
  46   23   26 1
  47   24   25 ar
  48   24   55 1
  49   25   56 1
  50   26   27 1
  51   26   30 1
  52   27   28 2
  53   28   29 1
  54   28   31 1
  55   29   30 2
  56   29   57 1
  57   30   32 1
  58   31   58 1
  59   31   59 1
  60   31   60 1
  61   32   33 1
  62   33   34 1
  63   33   61 1
  64   33   62 1
  65   34   63 1
  66   34   64 1
  67   34   65 1

#	End of record

