#	Name: ASD00731024
#	Creating user name:	WinNT
#	Creation time:	15. 06. 2019 18:37

#	Modifying user name:	WinNT
#	Modification time:	15. 06. 2019 18:37

#	Program:	/corina/corina34_cracker 3.40 0067  02.08.2006

@<TRIPOS>MOLECULE
ASD00731024
 250  252    0    0    0
SMALL
NO_CHARGES


@<TRIPOS>ATOM
   1 C1             0.0877    -2.4383    -8.3595 C.2     
   2 O2            -0.2847    -3.0925    -9.3104 O.2     
   3 N3             2.2808    -2.5540    -9.3919 N.am    
   4 C4             1.5353    -2.0365    -8.2418 C.3     
   5 C5            -3.0570    -1.4716    -6.7659 C.2     
   6 O6            -2.5402    -0.5427    -6.1819 O.2     
   7 N7            -0.7943    -2.0660    -7.4108 N.am    
   8 C8            -2.2028    -2.4514    -7.5283 C.3     
   9 C9            -2.3973    -3.8548    -6.9507 C.3     
  10 O10           -2.1268    -3.8342    -5.5477 O.3     
  11 C11           -6.6746    -1.0715    -6.1127 C.2     
  12 O12           -6.9832    -2.0531    -6.7547 O.2     
  13 N13           -4.3953    -1.6275    -6.7330 N.am    
  14 C14           -5.2257    -0.6749    -5.9919 C.3     
  15 C15           -9.9070     0.4937    -5.4308 C.2     
  16 O16           -9.4658     1.4726    -4.8668 O.2     
  17 N17           -7.6275    -0.3352    -5.5074 N.am    
  18 C18           -9.0360    -0.7207    -5.6248 C.3     
  19 C19           -9.3700    -1.7639    -4.5566 C.3     
  20 C20           -8.4982    -3.0039    -4.7645 C.3     
  21 O21           -9.1183    -1.2163    -3.2609 O.3     
  22 C22          -13.4904     1.1832    -5.6470 C.2     
  23 O23          -13.7566     0.0225    -5.8767 O.2     
  24 N24          -11.1763     0.4919    -5.8839 N.am    
  25 C25          -12.0528     1.6338    -5.6118 C.3     
  26 C26          -11.8302     2.7122    -6.6741 C.3     
  27 C27          -10.4272     3.2499    -6.5578 C.ar    
  28 C28           -9.4007     2.6604    -7.2724 C.ar    
  29 C29           -8.1137     3.1511    -7.1671 C.ar    
  30 C30           -7.8516     4.2366    -6.3439 C.ar    
  31 O31           -6.5864     4.7215    -6.2390 O.3     
  32 C32           -8.8834     4.8266    -5.6283 C.ar    
  33 C33          -10.1696     4.3354    -5.7410 C.ar    
  34 C34          -16.4556     1.5513    -6.7339 C.2     
  35 O35          -15.7787     1.8591    -7.6921 O.2     
  36 N36          -14.4803     2.0701    -5.4231 N.am    
  37 C37          -15.8700     1.6128    -5.3467 C.3     
  38 C38          -16.6819     2.5892    -4.4932 C.3     
  39 C39          -16.1608     2.5737    -3.0793 C.2     
  40 O40          -15.1958     1.9030    -2.7984 O.2     
  41 O41          -16.7686     3.3051    -2.1320 O.3     
  42 C42          -19.7990     1.2353    -8.1778 C.2     
  43 O43          -20.3382     1.3721    -7.1001 O.2     
  44 N44          -17.7315     1.1542    -6.9098 N.am    
  45 C45          -18.3007     1.0944    -8.2583 C.3     
  46 C46          -17.9486    -0.2484    -8.9015 C.3     
  47 C47          -16.4338    -0.3385    -9.0972 C.3     
  48 C48          -16.0816    -1.6813    -9.7404 C.3     
  49 N49          -14.6312    -1.7675    -9.9278 N.pl3   
  50 C50          -14.0767    -2.8916   -10.4927 C.2     
  51 N51          -14.8414    -3.8805   -10.8616 N.2     
  52 N52          -12.7156    -2.9725   -10.6686 N.pl3   
  53 C53          -22.6272     0.6986   -10.4310 C.2     
  54 O54          -21.9289     0.1745   -11.2728 O.2     
  55 N55          -20.5397     1.2091    -9.3035 N.am    
  56 C56          -21.9962     1.3461    -9.2252 C.3     
  57 C57          -22.3678     2.8298    -9.1901 C.3     
  58 C58          -21.8324     3.4593    -7.9025 C.3     
  59 C59          -22.0943     4.9666    -7.9244 C.3     
  60 C60          -22.5400     2.8362    -6.6975 C.3     
  61 C61          -25.9252     0.7010   -12.0076 C.2     
  62 O62          -26.3312     1.5872   -11.2860 O.2     
  63 N63          -23.9673     0.7021   -10.5738 N.am    
  64 C64          -24.5807     0.0727   -11.7460 C.3     
  65 C65          -24.7592    -1.4244   -11.4860 C.3     
  66 C66          -23.3863    -2.0847   -11.3440 C.3     
  67 C67          -23.5649    -3.5818   -11.0841 C.3     
  68 N68          -22.2503    -4.2140   -10.9481 N.pl3   
  69 C69          -22.1586    -5.5648   -10.7088 C.2     
  70 N70          -23.2412    -6.2829   -10.6030 N.2     
  71 N71          -20.9249    -6.1581   -10.5812 N.pl3   
  72 C72          -28.8574    -0.0867   -14.0435 C.2     
  73 O73          -28.4303    -1.1841   -14.3339 O.2     
  74 N74          -26.6766     0.2780   -13.0435 N.am    
  75 C75          -27.9837     0.8888   -13.2978 C.3     
  76 C76          -27.8004     2.1545   -14.1377 C.3     
  77 C77          -27.0185     3.1931   -13.3310 C.3     
  78 C78          -26.8352     4.4588   -14.1708 C.3     
  79 C79          -26.0532     5.4973   -13.3641 C.3     
  80 N80          -25.8773     6.7126   -14.1704 N.3     
  81 C81          -32.0057     0.0680   -15.8947 C.2     
  82 O82          -32.0365     1.2796   -15.8510 O.2     
  83 N83          -30.1134     0.2603   -14.3877 N.am    
  84 C84          -30.9628    -0.6880   -15.1126 C.3     
  85 C85          -31.6510    -1.6219   -14.1150 C.3     
  86 C86          -30.6143    -2.4661   -13.4197 C.2     
  87 C87          -30.2277    -3.7036   -13.7679 C.2     
  88 N88          -29.2662    -4.1525   -12.9040 N.pl3   
  89 C89          -29.0040    -3.1904   -11.9545 C.ar    
  90 C90          -28.1369    -3.1278   -10.8688 C.ar    
  91 C91          -28.1034    -1.9955   -10.0843 C.ar    
  92 C92          -28.9270    -0.9145   -10.3660 C.ar    
  93 C93          -29.7868    -0.9549   -11.4275 C.ar    
  94 C94          -29.8327    -2.0896   -12.2393 C.ar    
  95 C95          -35.0970     0.4293   -16.5126 C.2     
  96 O96          -35.0909     0.0643   -15.3608 O.2     
  97 N97          -32.9043    -0.6023   -16.6429 N.am    
  98 C98          -33.9182     0.1326   -17.4033 C.3     
  99 C99          -34.3774    -0.7142   -18.5919 C.3     
 100 C100         -33.2090    -0.9107   -19.5599 C.3     
 101 S101         -33.7535    -1.9146   -20.9692 S.3     
 102 C102         -32.2567    -2.0354   -21.9868 C.3     
 103 O103         -36.1538     1.0990   -16.9988 O.3     
 104 C104           3.6030    -2.3162    -9.5003 C.2     
 105 O105           4.1756    -1.6738    -8.6458 O.2     
 106 C106          20.1078    -3.7762   -18.2552 C.3     
 107 C107          19.3293    -3.2357   -17.0540 C.3     
 108 C108          17.8595    -3.6436   -17.1735 C.3     
 109 C109          17.0810    -3.1032   -15.9724 C.3     
 110 C110          15.6112    -3.5111   -16.0918 C.3     
 111 C111          14.8327    -2.9707   -14.8907 C.3     
 112 C112          13.3629    -3.3786   -15.0101 C.3     
 113 C113          12.5844    -2.8382   -13.8090 C.3     
 114 C114          11.1146    -3.2461   -13.9285 C.3     
 115 C115          10.3361    -2.7056   -12.7273 C.3     
 116 C116           8.8664    -3.1136   -12.8468 C.3     
 117 C117           8.0878    -2.5731   -11.6456 C.3     
 118 C118           6.6181    -2.9811   -11.7651 C.3     
 119 C119           5.8395    -2.4406   -10.5640 C.3     
 120 C120           4.3698    -2.8485   -10.6834 C.3     
 121 H121           1.8228    -3.0678   -10.0754 H       
 122 H122           1.6100    -0.9493    -8.2198 H       
 123 H123           1.9531    -2.4481    -7.3230 H       
 124 H124          -0.4964    -1.5427    -6.6503 H       
 125 H125          -2.4943    -2.4472    -8.5786 H       
 126 H126          -3.4251    -4.1772    -7.1178 H       
 127 H127          -1.7146    -4.5479    -7.4422 H       
 128 H128          -2.2306    -4.6925    -5.1145 H       
 129 H129          -4.8087    -2.3704    -7.2001 H       
 130 H130          -5.0871     0.3249    -6.4034 H       
 131 H131          -4.9343    -0.6792    -4.9416 H       
 132 H132          -7.3807     0.4499    -4.9939 H       
 133 H133          -9.2160    -1.1427    -6.6136 H       
 134 H134         -10.4212    -2.0413    -4.6359 H       
 135 H135          -7.4541    -2.7484    -4.5839 H       
 136 H136          -8.8064    -3.7853    -4.0698 H       
 137 H137          -8.6130    -3.3614    -5.7877 H       
 138 H138          -9.6380    -0.4259    -3.0602 H       
 139 H139         -11.5095    -0.2654    -6.3902 H       
 140 H140         -11.8237     2.0411    -4.6271 H       
 141 H141         -11.9731     2.2810    -7.6650 H       
 142 H142         -12.5435     3.5226    -6.5242 H       
 143 H143          -9.6052     1.8154    -7.9131 H       
 144 H144          -7.3121     2.6899    -7.7249 H       
 145 H145          -6.3747     5.4108    -6.8833 H       
 146 H146          -8.6818     5.6715    -4.9865 H       
 147 H147         -10.9739     4.7970    -5.1876 H       
 148 H148         -14.2726     3.0111    -5.3126 H       
 149 H149         -15.9020     0.6216    -4.8945 H       
 150 H150         -16.5890     3.5946    -4.9037 H       
 151 H151         -17.7302     2.2904    -4.4974 H       
 152 H152         -16.3981     3.2630    -1.2397 H       
 153 H153         -18.2728     0.9081    -6.1435 H       
 154 H154         -17.8915     1.9047    -8.8617 H       
 155 H155         -18.2800    -1.0597    -8.2534 H       
 156 H156         -18.4453    -0.3296    -9.8683 H       
 157 H157         -16.1023     0.4729    -9.7453 H       
 158 H158         -15.9371    -0.2573    -8.1304 H       
 159 H159         -16.4131    -2.4926    -9.0923 H       
 160 H160         -16.5784    -1.7625   -10.7072 H       
 161 H161         -14.0621    -1.0316    -9.6533 H       
 162 H162         -14.4502    -4.6736   -11.2602 H       
 163 H163         -12.1465    -2.2365   -10.3941 H       
 164 H164         -12.3244    -3.7656   -11.0672 H       
 165 H165         -20.1085     1.0997   -10.1654 H       
 166 H166         -22.3588     0.8592    -8.3199 H       
 167 H167         -21.9295     3.3347   -10.0509 H       
 168 H168         -23.4524     2.9336    -9.2215 H       
 169 H169         -20.7601     3.2779    -7.8280 H       
 170 H170         -23.1665     5.1480    -7.9989 H       
 171 H171         -21.7128     5.4151    -7.0071 H       
 172 H172         -21.5902     5.4105    -8.7828 H       
 173 H173         -23.6122     3.0176    -6.7720 H       
 174 H174         -22.3533     1.7624    -6.6819 H       
 175 H175         -22.1585     3.2847    -5.7802 H       
 176 H176         -24.5258     1.1213    -9.9005 H       
 177 H177         -23.9373     0.2166   -12.6140 H       
 178 H178         -25.3284    -1.5684   -10.5677 H       
 179 H179         -25.2953    -1.8767   -12.3204 H       
 180 H180         -22.8171    -1.9407   -12.2624 H       
 181 H181         -22.8502    -1.6325   -10.5096 H       
 182 H182         -24.1340    -3.7258   -10.1657 H       
 183 H183         -24.1009    -4.0341   -11.9185 H       
 184 H184         -21.4446    -3.6796   -11.0268 H       
 185 H185         -23.1765    -7.2359   -10.4342 H       
 186 H186         -20.1193    -5.6237   -10.6599 H       
 187 H187         -20.8602    -7.1111   -10.4124 H       
 188 H188         -26.3519    -0.4308   -13.6206 H       
 189 H189         -28.4548     1.1471   -12.3494 H       
 190 H190         -27.2502     1.9110   -15.0466 H       
 191 H191         -28.7772     2.5598   -14.4018 H       
 192 H192         -27.5687     3.4366   -12.4221 H       
 193 H193         -26.0417     2.7877   -13.0668 H       
 194 H194         -26.2850     4.2152   -15.0797 H       
 195 H195         -27.8120     4.8641   -14.4349 H       
 196 H196         -26.6034     5.7409   -12.4552 H       
 197 H197         -25.0765     5.0920   -13.0999 H       
 198 H198         -26.7672     7.0716   -14.4822 H       
 199 H199         -25.3632     7.4144   -13.6593 H       
 200 H200         -30.4550     1.1380   -14.1554 H       
 201 H201         -30.3502    -1.2750   -15.7968 H       
 202 H202         -32.1922    -1.0300   -13.3769 H       
 203 H203         -32.3500    -2.2686   -14.6454 H       
 204 H204         -30.6180    -4.2622   -14.6058 H       
 205 H205         -28.8338    -5.0194   -12.9532 H       
 206 H206         -27.4924    -3.9639   -10.6412 H       
 207 H207         -27.4297    -1.9489    -9.2415 H       
 208 H208         -28.8883    -0.0345    -9.7411 H       
 209 H209         -30.4250    -0.1100   -11.6404 H       
 210 H210         -32.8797    -1.5714   -16.6779 H       
 211 H211         -33.4926     1.0681   -17.7665 H       
 212 H212         -34.7209    -1.6852   -18.2351 H       
 213 H213         -35.1936    -0.2065   -19.1059 H       
 214 H214         -32.8655     0.0603   -19.9167 H       
 215 H215         -32.3928    -1.4183   -19.0459 H       
 216 H216         -32.4693    -2.6275   -22.8769 H       
 217 H217         -31.9371    -1.0362   -22.2829 H       
 218 H218         -31.4643    -2.5149   -21.4121 H       
 219 H219         -36.8860     1.2658   -16.3896 H       
 220 H220          20.0331    -4.8634   -18.2772 H       
 221 H221          19.6900    -3.3646   -19.1740 H       
 222 H222          21.1549    -3.4855   -18.1701 H       
 223 H223          19.7471    -3.6473   -16.1353 H       
 224 H224          19.4040    -2.1485   -17.0320 H       
 225 H225          17.4417    -3.2321   -18.0923 H       
 226 H226          17.7848    -4.7309   -17.1955 H       
 227 H227          17.4988    -3.5148   -15.0536 H       
 228 H228          17.1557    -2.0160   -15.9503 H       
 229 H229          15.1934    -3.0996   -17.0106 H       
 230 H230          15.5366    -4.5983   -16.1138 H       
 231 H231          15.2505    -3.3823   -13.9719 H       
 232 H232          14.9074    -1.8835   -14.8687 H       
 233 H233          12.9452    -2.9670   -15.9289 H       
 234 H234          13.2883    -4.4658   -15.0322 H       
 235 H235          13.0022    -3.2497   -12.8902 H       
 236 H236          12.6591    -1.7509   -13.7870 H       
 237 H237          10.6969    -2.8345   -14.8472 H       
 238 H238          11.0400    -4.3333   -13.9505 H       
 239 H239          10.7539    -3.1172   -11.8085 H       
 240 H240          10.4108    -1.6184   -12.7053 H       
 241 H241           8.4486    -2.7020   -13.7656 H       
 242 H242           8.7917    -4.2008   -12.8688 H       
 243 H243           8.5056    -2.9847   -10.7269 H       
 244 H244           8.1625    -1.4859   -11.6236 H       
 245 H245           6.2003    -2.5695   -12.6839 H       
 246 H246           6.5434    -4.0683   -11.7871 H       
 247 H247           6.2573    -2.8522    -9.6452 H       
 248 H248           5.9142    -1.3534   -10.5419 H       
 249 H249           4.2951    -3.9358   -10.7054 H       
 250 H250           3.9520    -2.4370   -11.6022 H       
@<TRIPOS>BOND
   1    1    2 2
   2    1    4 1
   3    1    7 am
   4    3    4 1
   5    3  104 am
   6    3  121 1
   7    4  122 1
   8    4  123 1
   9    5    6 2
  10    5    8 1
  11    5   13 am
  12    7    8 1
  13    7  124 1
  14    8    9 1
  15    8  125 1
  16    9   10 1
  17    9  126 1
  18    9  127 1
  19   10  128 1
  20   11   12 2
  21   11   14 1
  22   11   17 am
  23   13   14 1
  24   13  129 1
  25   14  130 1
  26   14  131 1
  27   15   16 2
  28   15   18 1
  29   15   24 am
  30   17   18 1
  31   17  132 1
  32   18   19 1
  33   18  133 1
  34   19   20 1
  35   19   21 1
  36   19  134 1
  37   20  135 1
  38   20  136 1
  39   20  137 1
  40   21  138 1
  41   22   23 2
  42   22   25 1
  43   22   36 am
  44   24   25 1
  45   24  139 1
  46   25   26 1
  47   25  140 1
  48   26   27 1
  49   26  141 1
  50   26  142 1
  51   27   28 ar
  52   27   33 ar
  53   28   29 ar
  54   28  143 1
  55   29   30 ar
  56   29  144 1
  57   30   31 1
  58   30   32 ar
  59   31  145 1
  60   32   33 ar
  61   32  146 1
  62   33  147 1
  63   34   35 2
  64   34   37 1
  65   34   44 am
  66   36   37 1
  67   36  148 1
  68   37   38 1
  69   37  149 1
  70   38   39 1
  71   38  150 1
  72   38  151 1
  73   39   40 2
  74   39   41 1
  75   41  152 1
  76   42   43 2
  77   42   45 1
  78   42   55 am
  79   44   45 1
  80   44  153 1
  81   45   46 1
  82   45  154 1
  83   46   47 1
  84   46  155 1
  85   46  156 1
  86   47   48 1
  87   47  157 1
  88   47  158 1
  89   48   49 1
  90   48  159 1
  91   48  160 1
  92   49   50 1
  93   49  161 1
  94   50   51 2
  95   50   52 1
  96   51  162 1
  97   52  163 1
  98   52  164 1
  99   53   54 2
 100   53   56 1
 101   53   63 am
 102   55   56 1
 103   55  165 1
 104   56   57 1
 105   56  166 1
 106   57   58 1
 107   57  167 1
 108   57  168 1
 109   58   59 1
 110   58   60 1
 111   58  169 1
 112   59  170 1
 113   59  171 1
 114   59  172 1
 115   60  173 1
 116   60  174 1
 117   60  175 1
 118   61   62 2
 119   61   64 1
 120   61   74 am
 121   63   64 1
 122   63  176 1
 123   64   65 1
 124   64  177 1
 125   65   66 1
 126   65  178 1
 127   65  179 1
 128   66   67 1
 129   66  180 1
 130   66  181 1
 131   67   68 1
 132   67  182 1
 133   67  183 1
 134   68   69 1
 135   68  184 1
 136   69   70 2
 137   69   71 1
 138   70  185 1
 139   71  186 1
 140   71  187 1
 141   72   73 2
 142   72   75 1
 143   72   83 am
 144   74   75 1
 145   74  188 1
 146   75   76 1
 147   75  189 1
 148   76   77 1
 149   76  190 1
 150   76  191 1
 151   77   78 1
 152   77  192 1
 153   77  193 1
 154   78   79 1
 155   78  194 1
 156   78  195 1
 157   79   80 1
 158   79  196 1
 159   79  197 1
 160   80  198 1
 161   80  199 1
 162   81   82 2
 163   81   84 1
 164   81   97 am
 165   83   84 1
 166   83  200 1
 167   84   85 1
 168   84  201 1
 169   85   86 1
 170   85  202 1
 171   85  203 1
 172   86   87 2
 173   86   94 1
 174   87   88 1
 175   87  204 1
 176   88   89 1
 177   88  205 1
 178   89   90 ar
 179   89   94 ar
 180   90   91 ar
 181   90  206 1
 182   91   92 ar
 183   91  207 1
 184   92   93 ar
 185   92  208 1
 186   93   94 ar
 187   93  209 1
 188   95   96 2
 189   95   98 1
 190   95  103 1
 191   97   98 1
 192   97  210 1
 193   98   99 1
 194   98  211 1
 195   99  100 1
 196   99  212 1
 197   99  213 1
 198  100  101 1
 199  100  214 1
 200  100  215 1
 201  101  102 1
 202  102  216 1
 203  102  217 1
 204  102  218 1
 205  103  219 1
 206  104  105 2
 207  104  120 1
 208  106  107 1
 209  106  220 1
 210  106  221 1
 211  106  222 1
 212  107  108 1
 213  107  223 1
 214  107  224 1
 215  108  109 1
 216  108  225 1
 217  108  226 1
 218  109  110 1
 219  109  227 1
 220  109  228 1
 221  110  111 1
 222  110  229 1
 223  110  230 1
 224  111  112 1
 225  111  231 1
 226  111  232 1
 227  112  113 1
 228  112  233 1
 229  112  234 1
 230  113  114 1
 231  113  235 1
 232  113  236 1
 233  114  115 1
 234  114  237 1
 235  114  238 1
 236  115  116 1
 237  115  239 1
 238  115  240 1
 239  116  117 1
 240  116  241 1
 241  116  242 1
 242  117  118 1
 243  117  243 1
 244  117  244 1
 245  118  119 1
 246  118  245 1
 247  118  246 1
 248  119  120 1
 249  119  247 1
 250  119  248 1
 251  120  249 1
 252  120  250 1

#	End of record

