#	Name: ASD07301009
#	Creating user name:	WinNT
#	Creation time:	15. 06. 2019 21:10

#	Modifying user name:	WinNT
#	Modification time:	15. 06. 2019 21:10

#	Program:	/corina/corina34_cracker 3.40 0067  02.08.2006

@<TRIPOS>MOLECULE
ASD07301009
  39   41    0    0    0
SMALL
NO_CHARGES


@<TRIPOS>ATOM
   1 C1            -0.0178     1.4647     0.0101 C.2     
   2 C2             0.0021    -0.0041     0.0020 C.2     
   3 C3             1.2768    -0.6367    -0.0136 C.2     
   4 C4             2.3782     0.1590    -0.0198 C.2     
   5 N5             2.2577     1.5097    -0.0114 N.pl3   
   6 N6             1.1284     2.1156     0.0026 N.2     
   7 C7            -1.2985     2.1986     0.0202 C.2     
   8 O8            -2.3495     1.5873     0.0219 O.2     
   9 N9            -1.3028     3.5463     0.0275 N.am    
  10 O10           -1.0317    -0.6549     0.0088 O.2     
  11 C11           -2.5739     4.2747     0.0376 C.3     
  12 O12            1.3887    -1.9916    -0.0215 O.3     
  13 C13            2.7110    -2.5332    -0.0370 C.3     
  14 O14           -0.0788     4.2583     0.0256 O.3     
  15 C15            0.4174     4.5576    -1.2807 C.3     
  16 O16            4.7703     4.8558     2.0219 O.3     
  17 C17            3.7718     4.3272     2.9146 C.3     
  18 O18            2.8768     3.6131     2.0416 O.3     
  19 C19            3.6355     3.2360     0.9715 C.ar    
  20 C20            4.7990     3.9994     0.9591 C.ar    
  21 C21            3.4250     2.2806    -0.0184 C.ar    
  22 C22            4.3768     2.0936    -1.0135 C.ar    
  23 C23            5.5291     2.8542    -1.0201 C.ar    
  24 C24            5.7417     3.8048    -0.0379 C.ar    
  25 F25            4.3533     3.4560     3.8421 F       
  26 F26            3.0978     5.3645     3.5680 F       
  27 H27            3.3607    -0.2893    -0.0312 H       
  28 H28           -2.8842     4.4498     1.0677 H       
  29 H29           -2.4490     5.2303    -0.4717 H       
  30 H30           -3.3341     3.6860    -0.4759 H       
  31 H31            3.2506    -2.2000     0.8494 H       
  32 H32            2.6577    -3.6219    -0.0420 H       
  33 H33            3.2333    -2.1910    -0.9304 H       
  34 H34            0.5842     3.6295    -1.8274 H       
  35 H35           -0.3107     5.1681    -1.8148 H       
  36 H36            1.3571     5.1034    -1.1961 H       
  37 H37            4.2152     1.3523    -1.7821 H       
  38 H38            6.2671     2.7063    -1.7946 H       
  39 H39            6.6449     4.3969    -0.0480 H       
@<TRIPOS>BOND
   1    1    2 1
   2    1    6 2
   3    1    7 1
   4    2    3 1
   5    2   10 2
   6    3    4 2
   7    3   12 1
   8    4    5 1
   9    4   27 1
  10    5    6 1
  11    5   21 1
  12    7    8 2
  13    7    9 am
  14    9   11 1
  15    9   14 1
  16   11   28 1
  17   11   29 1
  18   11   30 1
  19   12   13 1
  20   13   31 1
  21   13   32 1
  22   13   33 1
  23   14   15 1
  24   15   34 1
  25   15   35 1
  26   15   36 1
  27   16   17 1
  28   16   20 1
  29   17   18 1
  30   17   25 1
  31   17   26 1
  32   18   19 1
  33   19   20 ar
  34   19   21 ar
  35   20   24 ar
  36   21   22 ar
  37   22   23 ar
  38   22   37 1
  39   23   24 ar
  40   23   38 1
  41   24   39 1

#	End of record

