#	Name: ASD02030273
#	Creating user name:	WinNT
#	Creation time:	15. 06. 2019 20:15

#	Modifying user name:	WinNT
#	Modification time:	15. 06. 2019 20:15

#	Program:	/corina/corina34_cracker 3.40 0067  02.08.2006

@<TRIPOS>MOLECULE
ASD02030273
  52   55    0    0    0
SMALL
NO_CHARGES


@<TRIPOS>ATOM
   1 N1            -0.1311     1.6192    -0.2956 N.am    
   2 C2            -0.2318     0.1560    -0.3901 C.3     
   3 C3            -1.0515    -0.3567     0.8005 C.3     
   4 N4            -2.2869     0.4337     0.8953 N.am    
   5 C5            -2.1861     1.8969     0.9898 C.3     
   6 C6            -1.3662     2.4092    -0.1952 C.3     
   7 C7             1.0728     2.2252    -0.2954 C.2     
   8 C8             2.3083     1.4148    -0.2495 C.2     
   9 N9             3.5322     1.8772    -0.1105 N.2     
  10 N10            2.3789     0.0738    -0.3368 N.2     
  11 C11            3.6429    -0.2553    -0.2547 C.2     
  12 N12            4.3522     0.8833    -0.1133 N.pl3   
  13 C13            5.7455     0.9705     0.0096 C.ar    
  14 O14            1.1425     3.4383    -0.3329 O.2     
  15 C15           -3.4907    -0.1723     0.8951 C.2     
  16 C16           -3.5755    -1.6511     0.8642 C.ar    
  17 O17           -4.5065     0.4941     0.9203 O.2     
  18 C18            6.3550     2.2097     0.1499 C.ar    
  19 C19            7.7297     2.2923     0.2709 C.ar    
  20 C20            8.4973     1.1411     0.2518 C.ar    
  21 C21            7.8919    -0.0943     0.1117 C.ar    
  22 C22            6.5186    -0.1832    -0.0029 C.ar    
  23 C23           -1.0185     3.8835     0.0201 C.3     
  24 N24           -2.5048    -2.3779     1.1636 N.ar    
  25 Cl25           8.4935     3.8413     0.4464 Cl      
  26 C26           -2.5390    -3.6966     1.1478 C.ar    
  27 C27           -3.7083    -4.3750     0.8140 C.ar    
  28 C28           -4.8440    -3.6512     0.4962 C.ar    
  29 C29           -4.7778    -2.2657     0.5273 C.ar    
  30 O30           -1.4217    -4.4000     1.4599 O.3     
  31 C31           -0.2534    -3.6476     1.7933 C.3     
  32 H32           -0.7287    -0.1171    -1.3210 H       
  33 H33            0.7660    -0.2819    -0.3629 H       
  34 H34           -1.3000    -1.4070     0.6484 H       
  35 H35           -0.4739    -0.2440     1.7180 H       
  36 H36           -3.1839     2.3348     0.9626 H       
  37 H37           -1.6892     2.1700     1.9207 H       
  38 H38           -1.9417     2.2969    -1.1140 H       
  39 H39            4.0449    -1.2571    -0.2903 H       
  40 H40            5.7560     3.1083     0.1640 H       
  41 H41            9.5711     1.2076     0.3461 H       
  42 H42            8.4936    -0.9911     0.0965 H       
  43 H43            6.0468    -1.1486    -0.1119 H       
  44 H44           -0.2628     3.9683     0.8011 H       
  45 H45           -0.6311     4.3046    -0.9076 H       
  46 H46           -1.9138     4.4279     0.3203 H       
  47 H47           -3.7285    -5.4547     0.8028 H       
  48 H48           -5.7632    -4.1539     0.2339 H       
  49 H49           -5.6463    -1.6714     0.2847 H       
  50 H50            0.5654    -4.3300     2.0213 H       
  51 H51            0.0246    -3.0155     0.9500 H       
  52 H52           -0.4591    -3.0235     2.6630 H       
@<TRIPOS>BOND
   1    1    2 1
   2    1    7 am
   3    1    6 1
   4    2    3 1
   5    2   32 1
   6    2   33 1
   7    3    4 1
   8    3   34 1
   9    3   35 1
  10    4    5 1
  11    4   15 am
  12    5    6 1
  13    5   36 1
  14    5   37 1
  15    6   23 1
  16    6   38 1
  17    7    8 1
  18    7   14 2
  19    8    9 2
  20    8   10 1
  21    9   12 1
  22   10   11 2
  23   11   12 1
  24   11   39 1
  25   12   13 1
  26   13   18 ar
  27   13   22 ar
  28   15   16 1
  29   15   17 2
  30   16   24 ar
  31   16   29 ar
  32   18   19 ar
  33   18   40 1
  34   19   20 ar
  35   19   25 1
  36   20   21 ar
  37   20   41 1
  38   21   22 ar
  39   21   42 1
  40   22   43 1
  41   23   44 1
  42   23   45 1
  43   23   46 1
  44   24   26 ar
  45   26   27 ar
  46   26   30 1
  47   27   28 ar
  48   27   47 1
  49   28   29 ar
  50   28   48 1
  51   29   49 1
  52   30   31 1
  53   31   50 1
  54   31   51 1
  55   31   52 1

#	End of record

