#	Name: ASD02508254
#	Creating user name:	WinNT
#	Creation time:	15. 06. 2019 20:24

#	Modifying user name:	WinNT
#	Modification time:	15. 06. 2019 20:24

#	Program:	/corina/corina34_cracker 3.40 0067  02.08.2006

@<TRIPOS>MOLECULE
ASD02508254
  36   38    0    0    0
SMALL
NO_CHARGES


@<TRIPOS>ATOM
   1 C1             0.0850     0.9952     1.0238 C.ar    
   2 C2             0.0134    -0.3298     0.5945 C.ar    
   3 C3            -1.2234    -0.9126     0.3664 C.ar    
   4 C4            -2.3773    -0.1799     0.5649 C.ar    
   5 C5            -2.3052     1.1352     0.9905 C.ar    
   6 C6            -1.0775     1.7228     1.2257 C.ar    
   7 S7            -3.9485    -0.9226     0.2743 S.o2    
   8 N8            -4.4038    -1.6719     1.6791 N.am    
   9 C9            -3.6393    -2.7236     2.1892 C.ar    
  10 N10            1.4394     1.2958     1.1648 N.am    
  11 C11            2.1364     0.1914     0.8317 C.2     
  12 O12            1.2849    -0.7878     0.4884 O.3     
  13 O13           -4.8655     0.1441     0.0730 O.2     
  14 O14           -3.7345    -1.9540    -0.6795 O.2     
  15 C15            2.0020     2.5779     1.5963 C.3     
  16 O16            3.3486     0.0967     0.8407 O.2     
  17 C17           -3.3271    -2.7648     3.5421 C.ar    
  18 C18           -3.1944    -3.7335     1.3457 C.ar    
  19 C19           -2.4388    -4.7728     1.8528 C.ar    
  20 C20           -2.1253    -4.8092     3.1987 C.ar    
  21 C21           -2.5708    -3.8072     4.0435 C.ar    
  22 Cl22          -2.1747    -3.8572     5.7329 Cl      
  23 C23           -1.0016     3.1546     1.6896 C.3     
  24 H24           -1.2847    -1.9382     0.0335 H       
  25 H25           -3.2116     1.7023     1.1429 H       
  26 H26           -5.2015    -1.3804     2.1478 H       
  27 H27            1.5700     2.8594     2.5566 H       
  28 H28            3.0832     2.4845     1.6976 H       
  29 H29            1.7712     3.3436     0.8557 H       
  30 H30           -3.6747    -1.9831     4.2013 H       
  31 H31           -3.4393    -3.7064     0.2942 H       
  32 H32           -2.0929    -5.5580     1.1970 H       
  33 H33           -1.5347    -5.6232     3.5926 H       
  34 H34           -0.9185     3.1805     2.7761 H       
  35 H35           -0.1286     3.6342     1.2469 H       
  36 H36           -1.9028     3.6846     1.3813 H       
@<TRIPOS>BOND
   1    1    2 ar
   2    1   10 1
   3    1    6 ar
   4    2    3 ar
   5    2   12 1
   6    3    4 ar
   7    3   24 1
   8    4    5 ar
   9    4    7 1
  10    5    6 ar
  11    5   25 1
  12    6   23 1
  13    7    8 am
  14    7   13 2
  15    7   14 2
  16    8    9 1
  17    8   26 1
  18    9   17 ar
  19    9   18 ar
  20   10   11 am
  21   10   15 1
  22   11   12 1
  23   11   16 2
  24   15   27 1
  25   15   28 1
  26   15   29 1
  27   17   21 ar
  28   17   30 1
  29   18   19 ar
  30   18   31 1
  31   19   20 ar
  32   19   32 1
  33   20   21 ar
  34   20   33 1
  35   21   22 1
  36   23   34 1
  37   23   35 1
  38   23   36 1

#	End of record

