#	Name: ASD02038639
#	Creating user name:	WinNT
#	Creation time:	15. 06. 2019 20:17

#	Modifying user name:	WinNT
#	Modification time:	15. 06. 2019 20:17

#	Program:	/corina/corina34_cracker 3.40 0067  02.08.2006

@<TRIPOS>MOLECULE
ASD02038639
  42   43    0    0    0
SMALL
NO_CHARGES


@<TRIPOS>ATOM
   1 C1            -0.0168     1.3846     0.0097 C.ar    
   2 C2             0.0021    -0.0041     0.0020 C.ar    
   3 O3            -1.1666    -0.7004     0.0090 O.3     
   4 C4            -1.0722    -2.1262     0.0005 C.3     
   5 C5            -2.4779    -2.7304     0.0101 C.3     
   6 C6            -2.3802    -4.2513    -0.1247 C.3     
   7 N7            -3.7298    -4.8207    -0.2358 N.3     
   8 C8            -3.6751    -6.2828    -0.3671 C.3     
   9 C9            -5.0963    -6.8382    -0.4801 C.3     
  10 C10           -5.0402    -8.3381    -0.6148 C.ar    
  11 C11            1.1720     2.0916     0.0021 C.ar    
  12 C12            2.3815     1.4133    -0.0131 C.ar    
  13 C13            2.3992     0.0264    -0.0212 C.ar    
  14 C14            1.2120    -0.6805    -0.0132 C.ar    
  15 O15            3.5504     2.1080    -0.0205 O.3     
  16 O16           -3.1291    -2.4019     1.2389 O.3     
  17 C17           -5.0666    -9.1345     0.5147 C.ar    
  18 C18           -5.0157   -10.5106     0.3925 C.ar    
  19 C19           -4.9383   -11.0912    -0.8604 C.ar    
  20 C20           -4.9118   -10.2933    -1.9920 C.ar    
  21 C21           -4.9682    -8.9170    -1.8682 C.ar    
  22 Cl22          -4.8147   -11.0205    -3.5654 Cl      
  23 Cl23          -4.8737   -12.8192    -1.0144 Cl      
  24 F24           -1.1956     2.0445     0.0188 F       
  25 H25           -0.5437    -2.4500    -0.8962 H       
  26 H26           -0.5274    -2.4596     0.8837 H       
  27 H27           -3.0521    -2.3278    -0.8243 H       
  28 H28           -1.8060    -4.5009    -1.0170 H       
  29 H29           -1.8835    -4.6628     0.7539 H       
  30 H30           -4.3025    -4.5493     0.5493 H       
  31 H31           -3.1099    -6.5464    -1.2610 H       
  32 H32           -3.1874    -6.7084     0.5099 H       
  33 H33           -5.6615    -6.5746     0.4139 H       
  34 H34           -5.5841    -6.4126    -1.3570 H       
  35 H35            1.1583     3.1715     0.0077 H       
  36 H36            3.3414    -0.5013    -0.0337 H       
  37 H37            1.2267    -1.7604    -0.0195 H       
  38 H38            3.8970     2.3042     0.8607 H       
  39 H39           -2.6724    -2.7294     2.0259 H       
  40 H40           -5.1267    -8.6814     1.4932 H       
  41 H41           -5.0360   -11.1323     1.2754 H       
  42 H42           -4.9476    -8.2941    -2.7502 H       
@<TRIPOS>BOND
   1    1    2 ar
   2    1   11 ar
   3    1   24 1
   4    2    3 1
   5    2   14 ar
   6    3    4 1
   7    4    5 1
   8    4   25 1
   9    4   26 1
  10    5    6 1
  11    5   16 1
  12    5   27 1
  13    6    7 1
  14    6   28 1
  15    6   29 1
  16    7    8 1
  17    7   30 1
  18    8    9 1
  19    8   31 1
  20    8   32 1
  21    9   10 1
  22    9   33 1
  23    9   34 1
  24   10   17 ar
  25   10   21 ar
  26   11   12 ar
  27   11   35 1
  28   12   13 ar
  29   12   15 1
  30   13   14 ar
  31   13   36 1
  32   14   37 1
  33   15   38 1
  34   16   39 1
  35   17   18 ar
  36   17   40 1
  37   18   19 ar
  38   18   41 1
  39   19   20 ar
  40   19   23 1
  41   20   21 ar
  42   20   22 1
  43   21   42 1

#	End of record

