#	Name: ASD01812114
#	Creating user name:	WinNT
#	Creation time:	15. 06. 2019 19:28

#	Modifying user name:	WinNT
#	Modification time:	15. 06. 2019 19:28

#	Program:	/corina/corina34_cracker 3.40 0067  02.08.2006

@<TRIPOS>MOLECULE
ASD01812114
  39   41    0    0    0
SMALL
NO_CHARGES


@<TRIPOS>ATOM
   1 C1            -0.0167     1.3809     0.0096 C.ar    
   2 C2             0.0021    -0.0041     0.0020 C.ar    
   3 C3             1.2016    -0.6769    -0.0129 C.ar    
   4 C4             2.4154     0.0298    -0.0206 C.ar    
   5 C5             2.3930     1.4249    -0.0127 C.ar    
   6 C6             1.1649     2.0891     0.0022 C.ar    
   7 C7             3.6562    -0.7502    -0.0382 C.2     
   8 C8             4.7464     0.7174    -1.5875 C.3     
   9 C9             4.6312     1.9507    -0.7333 C.2     
  10 N10            3.5379     2.2038    -0.0165 N.am    
  11 S11            5.8518     2.9825    -0.6848 S.2     
  12 C12            3.7125    -1.9872     0.8207 C.3     
  13 C13            5.0305    -2.7226     0.5700 C.3     
  14 C14            5.0877    -3.9785     1.4420 C.3     
  15 C15            4.9983    -3.5801     2.9165 C.3     
  16 C16            3.6802    -2.8447     3.1672 C.3     
  17 C17            3.6231    -1.5889     2.2952 C.3     
  18 N18            4.6926    -0.4625    -0.7254 N.2     
  19 C19            3.5879     0.6755    -2.5860 C.3     
  20 H20           -0.9600     1.9068     0.0169 H       
  21 H21           -0.9261    -0.5562     0.0082 H       
  22 H22            1.2102    -1.7569    -0.0184 H       
  23 H23            1.1411     3.1688     0.0070 H       
  24 H24            5.6942     0.7333    -2.1257 H       
  25 H25            3.5439     2.9943     0.5456 H       
  26 H26            2.8778    -2.6419     0.5699 H       
  27 H27            5.0942    -3.0064    -0.4804 H       
  28 H28            5.8652    -2.0679     0.8208 H       
  29 H29            4.2530    -4.6332     1.1913 H       
  30 H30            6.0267    -4.5024     1.2635 H       
  31 H31            5.0390    -4.4748     3.5378 H       
  32 H32            5.8329    -2.9254     3.1673 H       
  33 H33            2.8455    -3.4994     2.9164 H       
  34 H34            3.6165    -2.5609     4.2176 H       
  35 H35            4.4577    -0.9342     2.5459 H       
  36 H36            2.6841    -1.0650     2.4737 H       
  37 H37            3.6233     1.5608    -3.2209 H       
  38 H38            3.6730    -0.2184    -3.2039 H       
  39 H39            2.6422     0.6543    -2.0445 H       
@<TRIPOS>BOND
   1    1    2 ar
   2    1    6 ar
   3    1   20 1
   4    2    3 ar
   5    2   21 1
   6    3    4 ar
   7    3   22 1
   8    4    5 ar
   9    4    7 1
  10    5    6 ar
  11    5   10 1
  12    6   23 1
  13    7   12 1
  14    7   18 2
  15    8    9 1
  16    8   18 1
  17    8   19 1
  18    8   24 1
  19    9   10 am
  20    9   11 2
  21   10   25 1
  22   12   13 1
  23   12   17 1
  24   12   26 1
  25   13   14 1
  26   13   27 1
  27   13   28 1
  28   14   15 1
  29   14   29 1
  30   14   30 1
  31   15   16 1
  32   15   31 1
  33   15   32 1
  34   16   17 1
  35   16   33 1
  36   16   34 1
  37   17   35 1
  38   17   36 1
  39   19   37 1
  40   19   38 1
  41   19   39 1

#	End of record

