#	Name: ASD09540001
#	Creating user name:	WinNT
#	Creation time:	15. 06. 2019 21:22

#	Modifying user name:	WinNT
#	Modification time:	15. 06. 2019 21:22

#	Program:	/corina/corina34_cracker 3.40 0067  02.08.2006

@<TRIPOS>MOLECULE
ASD09540001
  48   50    0    0    0
SMALL
NO_CHARGES


@<TRIPOS>ATOM
   1 O1             0.0021    -0.0041     0.0020 O.2     
   2 C2            -0.0144     1.2086     0.0087 C.2     
   3 N3             1.1435     1.8983     0.0013 N.am    
   4 C4             2.4220     1.1832    -0.0147 C.3     
   5 C5             3.4833     2.0650    -0.6206 C.ar    
   6 C6             4.5915     1.4894    -1.2130 C.ar    
   7 C7             5.5632     2.3068    -1.7680 C.ar    
   8 C8             5.3823     3.6846    -1.7059 C.ar    
   9 C9             4.2430     4.1877    -1.0945 C.ar    
  10 N10            3.3395     3.3754    -0.5832 N.ar    
  11 O11            6.3087     4.5259    -2.2362 O.3     
  12 C12            6.0482     5.9270    -2.1311 C.3     
  13 C13            7.1926     6.7086    -2.7793 C.3     
  14 F14            7.2946     6.3532    -4.1285 F       
  15 F15            6.9376     8.0803    -2.6764 F       
  16 F16            8.3922     6.4070    -2.1257 F       
  17 C17            2.8194     0.8168     1.4166 C.3     
  18 C18           -1.3296     1.9443     0.0189 C.3     
  19 C19           -2.4616     0.9495     0.0189 C.ar    
  20 C20           -2.9751     0.4868     1.2160 C.ar    
  21 C21           -4.0135    -0.4257     1.2160 C.ar    
  22 C22           -4.5386    -0.8751     0.0188 C.ar    
  23 C23           -4.0257    -0.4117    -1.1783 C.ar    
  24 C24           -2.9902     0.5041    -1.1782 C.ar    
  25 C25           -5.6700    -1.8707     0.0188 C.3     
  26 C26           -6.9803    -1.4510    -0.6504 C.3     
  27 C27           -6.0729    -2.4821    -1.3246 C.3     
  28 H28            1.1304     2.8682     0.0067 H       
  29 H29            2.3225     0.2743    -0.6081 H       
  30 H30            4.6990     0.4152    -1.2426 H       
  31 H31            6.4396     1.8844    -2.2369 H       
  32 H32            4.0928     5.2558    -1.0405 H       
  33 H33            5.1135     6.1620    -2.6403 H       
  34 H34            5.9687     6.2039    -1.0798 H       
  35 H35            2.9189     1.7256     2.0100 H       
  36 H36            2.0518     0.1789     1.8549 H       
  37 H37            3.7707     0.2847     1.4047 H       
  38 H38           -1.3916     2.5653     0.9126 H       
  39 H39           -1.4000     2.5749    -0.8673 H       
  40 H40           -2.5648     0.8379     2.1513 H       
  41 H41           -4.4142    -0.7878     2.1512 H       
  42 H42           -4.4358    -0.7631    -2.1136 H       
  43 H43           -2.5895     0.8662    -2.1135 H       
  44 H44           -5.7369    -2.5064     0.9017 H       
  45 H45           -7.9092    -1.8109    -0.2080 H       
  46 H46           -7.0240    -0.4548    -1.0907 H       
  47 H47           -5.5198    -2.1642    -2.2084 H       
  48 H48           -6.4049    -3.5203    -1.3258 H       
@<TRIPOS>BOND
   1    1    2 2
   2    2    3 am
   3    2   18 1
   4    3    4 1
   5    3   28 1
   6    4    5 1
   7    4   17 1
   8    4   29 1
   9    5    6 ar
  10    5   10 ar
  11    6    7 ar
  12    6   30 1
  13    7    8 ar
  14    7   31 1
  15    8    9 ar
  16    8   11 1
  17    9   10 ar
  18    9   32 1
  19   11   12 1
  20   12   13 1
  21   12   33 1
  22   12   34 1
  23   13   14 1
  24   13   15 1
  25   13   16 1
  26   17   35 1
  27   17   36 1
  28   17   37 1
  29   18   19 1
  30   18   38 1
  31   18   39 1
  32   19   20 ar
  33   19   24 ar
  34   20   21 ar
  35   20   40 1
  36   21   22 ar
  37   21   41 1
  38   22   23 ar
  39   22   25 1
  40   23   24 ar
  41   23   42 1
  42   24   43 1
  43   25   26 1
  44   25   27 1
  45   25   44 1
  46   26   27 1
  47   26   45 1
  48   26   46 1
  49   27   47 1
  50   27   48 1

#	End of record

