#	Name: ASD08178032
#	Creating user name:	WinNT
#	Creation time:	15. 06. 2019 21:18

#	Modifying user name:	WinNT
#	Modification time:	15. 06. 2019 21:18

#	Program:	/corina/corina34_cracker 3.40 0067  02.08.2006

@<TRIPOS>MOLECULE
ASD08178032
 117  122    0    0    0
SMALL
NO_CHARGES


@<TRIPOS>ATOM
   1 C1             0.3172    -5.1375     0.0848 C.ar    
   2 C2             1.0287    -6.3208     0.1505 C.ar    
   3 C3             2.4104    -6.2955     0.1843 C.ar    
   4 C4             3.0806    -5.0869     0.1519 C.ar    
   5 C5             2.3691    -3.9036     0.0853 C.ar    
   6 C6             0.9873    -3.9289     0.0530 C.ar    
   7 O7             3.0224    -2.9308    -2.2824 O.2     
   8 C8             3.3804    -2.2043    -1.3795 C.2     
   9 C9             3.0997    -2.5860     0.0511 C.3     
  10 N10            4.0685    -0.3413     0.6281 N.2     
  11 C11            4.3452    -0.1716    -0.6296 C.2     
  12 N12            4.0292    -1.0558    -1.6556 N.am    
  13 N13            4.4265     0.5620     1.4340 N.2     
  14 C14            5.0416     1.5820     0.9253 C.2     
  15 S15            5.1629     1.3222    -0.8152 S.3     
  16 C16            5.5605     2.7763     1.6840 C.3     
  17 C17            7.0006     2.5120     2.1281 C.3     
  18 S18            7.6252     3.9495     3.0414 S.3     
  19 C19            9.3150     3.4538     3.4764 C.3     
  20 C20            9.9896     4.5786     4.2642 C.3     
  21 C21           11.3935     4.1668     4.6256 C.2     
  22 N22           12.4569     4.3733     3.9156 N.2     
  23 N23           13.5462     3.9502     4.3935 N.2     
  24 C24           13.5069     3.3502     5.5448 C.2     
  25 S25           11.8848     3.3238     6.0952 S.3     
  26 N26           14.6010     2.8211     6.2210 N.am    
  27 C27           15.8334     2.9103     5.6827 C.2     
  28 O28           16.7984     2.5289     6.3106 O.2     
  29 C29           16.0122     3.4840     4.3007 C.3     
  30 C30           17.4747     3.4715     3.9370 C.ar    
  31 C31           14.4139     2.1669     7.5184 C.3     
  32 C32           18.0191     2.3721     3.3000 C.ar    
  33 C33           19.3606     2.3607     2.9664 C.ar    
  34 C34           20.1575     3.4488     3.2696 C.ar    
  35 C35           19.6128     4.5485     3.9058 C.ar    
  36 C36           18.2704     4.5617     4.2355 C.ar    
  37 O37           13.8001     0.8660     7.3205 O.3     
  38 C38           14.6053    -0.1347     6.9203 C.2     
  39 O39           15.7727     0.0880     6.6710 O.2     
  40 O40           14.1171    -1.3821     6.7961 O.3     
  41 C41           15.0430    -2.4120     6.3598 C.3     
  42 C42           14.3120    -3.7536     6.2780 C.3     
  43 C43           15.2877    -4.8387     5.8182 C.3     
  44 N44           14.5859    -6.1269     5.7397 N.3     
  45 C45           15.4196    -7.1417     5.0793 C.3     
  46 C46           14.6757    -8.4798     5.0722 C.3     
  47 O47           13.4113    -8.3131     4.4251 O.3     
  48 C48           12.5733    -7.3325     5.0426 C.3     
  49 C49           13.2959    -5.9828     5.0494 C.3     
  50 C50            4.4017    -0.7386    -3.0365 C.3     
  51 O51            5.8284    -0.9432    -3.2122 O.3     
  52 C52            6.2486    -2.2113    -3.3710 C.2     
  53 O53            7.5651    -2.4803    -3.4373 O.3     
  54 O54            5.4397    -3.1130    -3.4546 O.2     
  55 C55            7.9459    -3.8709    -3.6094 C.3     
  56 C56            9.4711    -3.9793    -3.6625 C.3     
  57 C57            9.8723    -5.4446    -3.8438 C.3     
  58 N58           11.3367    -5.5486    -3.8947 N.3     
  59 C59           11.7677    -6.9526    -3.8297 C.3     
  60 C60           13.2929    -7.0185    -3.9457 C.3     
  61 O61           13.8794    -6.2236    -2.9116 O.3     
  62 C62           11.9585    -4.7624    -2.8192 C.3     
  63 C63           13.4817    -4.8503    -2.9454 C.3     
  64 H64           -0.7622    -5.1574     0.0539 H       
  65 H65            0.5051    -7.2651     0.1758 H       
  66 H66            2.9663    -7.2200     0.2363 H       
  67 H67            4.1601    -5.0672     0.1791 H       
  68 H68            0.4315    -3.0044     0.0006 H       
  69 H69            2.4843    -1.8171     0.5182 H       
  70 H70            4.0404    -2.6780     0.5939 H       
  71 H71            5.5344     3.6553     1.0399 H       
  72 H72            4.9360     2.9493     2.5604 H       
  73 H73            7.0267     1.6330     2.7722 H       
  74 H74            7.6251     2.3389     1.2517 H       
  75 H75            9.2832     2.5512     4.0867 H       
  76 H76            9.8817     3.2572     2.5663 H       
  77 H77           10.0215     5.4812     3.6539 H       
  78 H78            9.4230     4.7752     5.1743 H       
  79 H79           15.4542     2.8829     3.5828 H       
  80 H80           15.6419     4.5090     4.2820 H       
  81 H81           15.3812     2.0420     8.0052 H       
  82 H82           13.7683     2.7817     8.1456 H       
  83 H83           17.3965     1.5220     3.0632 H       
  84 H84           19.7861     1.5015     2.4694 H       
  85 H85           21.2057     3.4395     3.0096 H       
  86 H86           20.2355     5.3984     4.1430 H       
  87 H87           17.8449     5.4209     4.7326 H       
  88 H88           15.4380    -2.1529     5.3774 H       
  89 H89           15.8639    -2.4883     7.0728 H       
  90 H90           13.9171    -4.0126     7.2603 H       
  91 H91           13.4912    -3.6772     5.5649 H       
  92 H92           15.6826    -4.5797     4.8359 H       
  93 H93           16.1086    -4.9151     6.5313 H       
  94 H94           15.6242    -6.8336     4.0539 H       
  95 H95           16.3589    -7.2503     5.6216 H       
  96 H96           15.2655    -9.2213     4.5333 H       
  97 H97           14.5185    -8.8142     6.0977 H       
  98 H98           11.6425    -7.2442     4.4823 H       
  99 H99           12.3549    -7.6335     6.0672 H       
 100 H100          12.6849    -5.2454     5.5699 H       
 101 H101          13.4665    -5.6562     4.0236 H       
 102 H102           3.8547    -1.3891    -3.7189 H       
 103 H103           4.1548     0.3014    -3.2497 H       
 104 H104           7.5689    -4.4572    -2.7714 H       
 105 H105           7.5220    -4.2513    -4.5388 H       
 106 H106           9.8481    -3.3930    -4.5005 H       
 107 H107           9.8949    -3.5989    -2.7331 H       
 108 H108           9.4953    -6.0309    -3.0058 H       
 109 H109           9.4485    -5.8250    -4.7732 H       
 110 H110          11.4560    -7.3854    -2.8791 H       
 111 H111          11.3159    -7.5104    -4.6499 H       
 112 H112          13.6216    -8.0524    -3.8408 H       
 113 H113          13.6008    -6.6350    -4.9185 H       
 114 H114          11.6459    -3.7215    -2.9019 H       
 115 H115          11.6498    -5.1602    -1.8525 H       
 116 H116          13.9470    -4.3161    -2.1169 H       
 117 H117          13.7951    -4.4038    -3.8890 H       
@<TRIPOS>BOND
   1    1    2 ar
   2    1    6 ar
   3    1   64 1
   4    2    3 ar
   5    2   65 1
   6    3    4 ar
   7    3   66 1
   8    4    5 ar
   9    4   67 1
  10    5    6 ar
  11    5    9 1
  12    6   68 1
  13    7    8 2
  14    8    9 1
  15    8   12 am
  16    9   69 1
  17    9   70 1
  18   10   11 2
  19   10   13 1
  20   11   12 1
  21   11   15 1
  22   12   50 1
  23   13   14 2
  24   14   15 1
  25   14   16 1
  26   16   17 1
  27   16   71 1
  28   16   72 1
  29   17   18 1
  30   17   73 1
  31   17   74 1
  32   18   19 1
  33   19   20 1
  34   19   75 1
  35   19   76 1
  36   20   21 1
  37   20   77 1
  38   20   78 1
  39   21   22 2
  40   21   25 1
  41   22   23 1
  42   23   24 2
  43   24   25 1
  44   24   26 1
  45   26   27 am
  46   26   31 1
  47   27   28 2
  48   27   29 1
  49   29   30 1
  50   29   79 1
  51   29   80 1
  52   30   32 ar
  53   30   36 ar
  54   31   37 1
  55   31   81 1
  56   31   82 1
  57   32   33 ar
  58   32   83 1
  59   33   34 ar
  60   33   84 1
  61   34   35 ar
  62   34   85 1
  63   35   36 ar
  64   35   86 1
  65   36   87 1
  66   37   38 1
  67   38   39 2
  68   38   40 1
  69   40   41 1
  70   41   42 1
  71   41   88 1
  72   41   89 1
  73   42   43 1
  74   42   90 1
  75   42   91 1
  76   43   44 1
  77   43   92 1
  78   43   93 1
  79   44   45 1
  80   44   49 1
  81   45   46 1
  82   45   94 1
  83   45   95 1
  84   46   47 1
  85   46   96 1
  86   46   97 1
  87   47   48 1
  88   48   49 1
  89   48   98 1
  90   48   99 1
  91   49  100 1
  92   49  101 1
  93   50   51 1
  94   50  102 1
  95   50  103 1
  96   51   52 1
  97   52   53 1
  98   52   54 2
  99   53   55 1
 100   55   56 1
 101   55  104 1
 102   55  105 1
 103   56   57 1
 104   56  106 1
 105   56  107 1
 106   57   58 1
 107   57  108 1
 108   57  109 1
 109   58   59 1
 110   58   62 1
 111   59   60 1
 112   59  110 1
 113   59  111 1
 114   60   61 1
 115   60  112 1
 116   60  113 1
 117   61   63 1
 118   62   63 1
 119   62  114 1
 120   62  115 1
 121   63  116 1
 122   63  117 1

#	End of record

