#	Name: ASD01208752
#	Creating user name:	WinNT
#	Creation time:	15. 06. 2019 19:10

#	Modifying user name:	WinNT
#	Modification time:	15. 06. 2019 19:10

#	Program:	/corina/corina34_cracker 3.40 0067  02.08.2006

@<TRIPOS>MOLECULE
ASD01208752
  53   56    0    0    0
SMALL
NO_CHARGES


@<TRIPOS>ATOM
   1 C1            -0.6246     1.5508    -0.5836 C.2     
   2 C2            -0.3234     0.1099    -0.4480 C.ar    
   3 C3            -1.3550    -0.8023    -0.2218 C.ar    
   4 C4            -1.0684    -2.1515    -0.0958 C.ar    
   5 C5             0.2425    -2.5965    -0.1938 C.ar    
   6 C6             1.2708    -1.6930    -0.4185 C.ar    
   7 C7             0.9923    -0.3425    -0.5515 C.ar    
   8 O8             0.2753     2.3439    -0.7806 O.2     
   9 N9            -1.8976     1.9844    -0.4944 N.am    
  10 O10            2.5528    -2.1341    -0.5136 O.3     
  11 C11            4.8911    -1.6986    -0.0853 C.3     
  12 C12            3.5738    -1.1408    -0.6280 C.3     
  13 C13            3.7497    -0.7572    -2.0986 C.3     
  14 O14            5.3245    -2.7829    -0.9090 O.3     
  15 C15            6.5530    -3.3785    -0.4869 C.3     
  16 S16           -3.7854     4.0603    -0.5299 S.3     
  17 C17           -2.1808     3.3392    -0.6219 C.2     
  18 N18           -1.3051     4.2749    -0.8278 N.2     
  19 C19           -1.7596     5.5105    -0.9225 C.2     
  20 C20           -3.0805     5.6539    -0.7941 C.2     
  21 F21           -3.7601     6.8199    -0.8559 F       
  22 O22           -2.0721    -3.0408     0.1244 O.3     
  23 C23           -2.8441    -3.4061    -0.9326 C.ar    
  24 C24           -2.5293    -2.9617    -2.2060 C.ar    
  25 C25           -3.3249    -3.3394    -3.2884 C.ar    
  26 C26           -4.4335    -4.1632    -3.0798 C.ar    
  27 C27           -4.7377    -4.5998    -1.8070 C.ar    
  28 C28           -3.9449    -4.2293    -0.7361 C.ar    
  29 O29           -3.6746    -3.1560    -5.7765 O.3     
  30 C30           -2.9962    -2.8694    -4.6495 C.2     
  31 N31           -1.9859    -2.0928    -4.9830 N.2     
  32 N32           -2.0072    -1.8871    -6.2530 N.2     
  33 C33           -3.0307    -2.5234    -6.7803 C.2     
  34 C34           -3.3949    -2.5417    -8.1651 C.1     
  35 N35           -3.6839    -2.5562    -9.2636 N.1     
  36 H36           -2.3753    -0.4567    -0.1448 H       
  37 H37            0.4627    -3.6491    -0.0944 H       
  38 H38            1.7931     0.3596    -0.7309 H       
  39 H39           -2.6161     1.3511    -0.3412 H       
  40 H40            5.6474    -0.9137    -0.0901 H       
  41 H41            4.7426    -2.0538     0.9345 H       
  42 H42            3.2888    -0.2590    -0.0541 H       
  43 H43            2.8112    -0.3598    -2.4852 H       
  44 H44            4.5285     0.0004    -2.1859 H       
  45 H45            4.0347    -1.6390    -2.6725 H       
  46 H46            7.3438    -2.6285    -0.5001 H       
  47 H47            6.4390    -3.7686     0.5245 H       
  48 H48            6.8132    -4.1928    -1.1632 H       
  49 H49           -1.1044     6.3520    -1.0928 H       
  50 H50           -1.6710    -2.3247    -2.3607 H       
  51 H51           -5.0524    -4.4578    -3.9144 H       
  52 H52           -5.5951    -5.2367    -1.6470 H       
  53 H53           -4.1854    -4.5782     0.2573 H       
@<TRIPOS>BOND
   1    1    2 1
   2    1    8 2
   3    1    9 am
   4    2    3 ar
   5    2    7 ar
   6    3    4 ar
   7    3   36 1
   8    4    5 ar
   9    4   22 1
  10    5    6 ar
  11    5   37 1
  12    6    7 ar
  13    6   10 1
  14    7   38 1
  15    9   17 1
  16    9   39 1
  17   10   12 1
  18   11   12 1
  19   11   14 1
  20   11   40 1
  21   11   41 1
  22   12   13 1
  23   12   42 1
  24   13   43 1
  25   13   44 1
  26   13   45 1
  27   14   15 1
  28   15   46 1
  29   15   47 1
  30   15   48 1
  31   16   17 1
  32   16   20 1
  33   17   18 2
  34   18   19 1
  35   19   20 2
  36   19   49 1
  37   20   21 1
  38   22   23 1
  39   23   24 ar
  40   23   28 ar
  41   24   25 ar
  42   24   50 1
  43   25   26 ar
  44   25   30 1
  45   26   27 ar
  46   26   51 1
  47   27   28 ar
  48   27   52 1
  49   28   53 1
  50   29   30 1
  51   29   33 1
  52   30   31 2
  53   31   32 1
  54   32   33 2
  55   33   34 1
  56   34   35 3

#	End of record

