#	Name: ASD01330019
#	Creating user name:	WinNT
#	Creation time:	15. 06. 2019 19:16

#	Modifying user name:	WinNT
#	Modification time:	15. 06. 2019 19:16

#	Program:	/corina/corina34_cracker 3.40 0067  02.08.2006

@<TRIPOS>MOLECULE
ASD01330019
  31   30    0    0    0
SMALL
NO_CHARGES


@<TRIPOS>ATOM
   1 C1            -0.0181     1.4864     0.0102 C.2     
   2 C2             1.0581    -2.2476    -0.0201 C.3     
   3 O3             0.4046    -2.6141    -1.2370 O.3     
   4 C4             2.3891    -2.9942     0.0889 C.3     
   5 O5             3.2643    -2.5626    -0.9550 O.3     
   6 C6             2.1422    -4.4985    -0.0419 C.3     
   7 O7             1.2670    -4.9301     1.0020 O.3     
   8 C8             3.4732    -5.2451     0.0671 C.3     
   9 C9             0.0021    -0.0041     0.0020 C.2     
  10 O10           -1.0356    -0.6221     0.0086 O.2     
  11 C11            1.3172    -0.7397    -0.0145 C.3     
  12 O12            1.0237     2.1070     0.0036 O.2     
  13 O13           -1.1927     2.1434     0.0194 O.3     
  14 P14            4.4450    -7.7260    -0.1353 P.3     
  15 O15            5.1517    -7.6434     1.1625 O.2     
  16 O16            3.2590    -6.6378    -0.1708 O.3     
  17 O17            5.4818    -7.4291    -1.3307 O.3     
  18 O18            3.8256    -9.2011    -0.3161 O.3     
  19 H19            0.4237    -2.5104     0.8264 H       
  20 H20            0.9129    -2.4090    -2.0336 H       
  21 H21            2.8456    -2.7837     1.0560 H       
  22 H22            2.9214    -2.7191    -1.8456 H       
  23 H23            1.6857    -4.7090    -1.0091 H       
  24 H24            1.6099    -4.7736     1.8925 H       
  25 H25            4.1713    -4.8533    -0.6727 H       
  26 H26            3.8868    -5.1066     1.0660 H       
  27 H27            1.8936    -0.4734     0.8715 H       
  28 H28            1.8766    -0.4639    -0.9084 H       
  29 H29           -1.1552     3.1097     0.0244 H       
  30 H30            5.0866    -7.4665    -2.2125 H       
  31 H31            4.4847    -9.9086    -0.3045 H       
@<TRIPOS>BOND
   1    1    9 1
   2    1   12 2
   3    1   13 1
   4    2    3 1
   5    2    4 1
   6    2   11 1
   7    2   19 1
   8    3   20 1
   9    4    5 1
  10    4    6 1
  11    4   21 1
  12    5   22 1
  13    6    7 1
  14    6    8 1
  15    6   23 1
  16    7   24 1
  17    8   16 1
  18    8   25 1
  19    8   26 1
  20    9   10 2
  21    9   11 1
  22   11   27 1
  23   11   28 1
  24   13   29 1
  25   14   15 2
  26   14   16 1
  27   14   17 1
  28   14   18 1
  29   17   30 1
  30   18   31 1

#	End of record

