#	Name: ASD03240313
#	Creating user name:	WinNT
#	Creation time:	15. 06. 2019 20:34

#	Modifying user name:	WinNT
#	Modification time:	15. 06. 2019 20:34

#	Program:	/corina/corina34_cracker 3.40 0067  02.08.2006

@<TRIPOS>MOLECULE
ASD03240313
 100  107    0    0    0
SMALL
NO_CHARGES


@<TRIPOS>ATOM
   1 C1             0.4017     2.6217     1.9822 C.2     
   2 N2             0.6370     1.8756     3.1128 N.pl3   
   3 O3            -3.2562     4.1509     1.4826 O.2     
   4 C4            -2.5201     4.4439     0.5644 C.2     
   5 C5            -1.0916     3.9637     0.5611 C.3     
   6 N6            -0.8409     3.1687     1.7659 N.pl3   
   7 N7             1.3582     2.8148     1.1182 N.2     
   8 N8            -2.9795     5.1990    -0.4531 N.am    
   9 C9            -4.3264     5.5490    -0.5075 C.ar    
  10 C10           -4.7065     6.7948    -1.0272 C.ar    
  11 C11           -6.0506     7.1402    -1.0798 C.ar    
  12 C12           -7.0151     6.2452    -0.6151 C.ar    
  13 C13           -6.6266     5.0054    -0.0986 C.ar    
  14 C14           -5.2935     4.6615    -0.0522 C.ar    
  15 C15           -8.4450     6.6074    -0.6683 C.2     
  16 N16           -9.3763     5.7429    -0.2194 N.am    
  17 O17           -8.7827     7.6860    -1.1171 O.2     
  18 C18          -10.7204     6.1322    -0.1553 C.ar    
  19 C19          -11.7245     5.1757    -0.2279 C.ar    
  20 C20          -11.0485     7.4741    -0.0134 C.ar    
  21 C21          -12.3732     7.8579     0.0502 C.ar    
  22 C22          -13.3777     6.9018    -0.0278 C.ar    
  23 C23          -13.0493     5.5593    -0.1648 C.ar    
  24 N24          -14.7200     7.2906     0.0371 N.pl3   
  25 C25          -15.7794     6.2821    -0.0452 C.3     
  26 C26          -15.0662     8.7062     0.1872 C.3     
  27 C27           -3.6762     7.7408    -1.5187 C.ar    
  28 C28           -3.8094     8.3244    -2.7784 C.ar    
  29 C29           -2.8521     9.2033    -3.2350 C.ar    
  30 C30           -1.7497     9.5095    -2.4377 C.ar    
  31 C31           -1.6164     8.9261    -1.1781 C.ar    
  32 C32           -2.5765     8.0516    -0.7190 C.ar    
  33 C33          -15.2116     9.3349    -1.1746 C.ar    
  34 C34          -16.1159     5.7930     1.3400 C.ar    
  35 C35          -16.4270     9.3338    -1.7870 C.ar    
  36 C36          -16.5664     9.9197    -3.0568 C.ar    
  37 C37          -15.4356    10.5036    -3.6803 C.ar    
  38 C38          -14.1967    10.4851    -3.0170 C.ar    
  39 C39          -14.1007     9.9138    -1.7856 C.ar    
  40 C40          -17.0834     6.4262     2.0578 C.ar    
  41 C41          -17.4000     5.9724     3.3496 C.ar    
  42 C42          -16.7047     4.8596     3.8849 C.ar    
  43 C43          -15.7116     4.2317     3.1138 C.ar    
  44 C44          -15.4357     4.6953     1.8644 C.ar    
  45 C45          -18.3924     6.6008     4.1213 C.ar    
  46 C46          -18.6719     6.1338     5.3687 C.ar    
  47 C47          -17.9877     5.0396     5.8952 C.ar    
  48 C48          -17.0213     4.4056     5.1767 C.ar    
  49 C49          -17.8049     9.9374    -3.7207 C.ar    
  50 C50          -17.9019    10.5134    -4.9499 C.ar    
  51 C51          -16.7898    11.0874    -5.5632 C.ar    
  52 C52          -15.5748    11.0896    -4.9501 C.ar    
  53 C53           -0.7188    10.4555    -2.9295 C.ar    
  54 C54            0.3841    10.7634    -2.1348 C.ar    
  55 C55            1.3406    11.6440    -2.5979 C.ar    
  56 C56            1.2063    12.2206    -3.8481 C.ar    
  57 C57            0.1138    11.9186    -4.6411 C.ar    
  58 C58           -0.8462    11.0354    -4.1906 C.ar    
  59 H59            1.5148     1.4930     3.2674 H       
  60 H60           -0.0749     1.7318     3.7558 H       
  61 H61           -0.9168     3.3496    -0.3223 H       
  62 H62           -0.4198     4.8219     0.5459 H       
  63 H63           -1.5517     3.0282     2.4109 H       
  64 H64            1.1923     3.3412     0.3205 H       
  65 H65           -2.3721     5.4986    -1.1474 H       
  66 H66           -6.3484     8.0986    -1.4788 H       
  67 H67           -7.3740     4.3135     0.2607 H       
  68 H68           -4.9986     3.7024     0.3474 H       
  69 H69           -9.1159     4.8510     0.0594 H       
  70 H70          -11.4692     4.1317    -0.3342 H       
  71 H71          -10.2675     8.2174     0.0476 H       
  72 H72          -12.6283     8.9015     0.1609 H       
  73 H73          -13.8302     4.8158    -0.2254 H       
  74 H74          -16.6663     6.7231    -0.5002 H       
  75 H75          -15.4374     5.4446    -0.6531 H       
  76 H76          -16.0070     8.7945     0.7305 H       
  77 H77          -14.2777     9.2163     0.7406 H       
  78 H78           -4.6630     8.0870    -3.3961 H       
  79 H79           -2.9551     9.6549    -4.2106 H       
  80 H80           -0.7626     9.1633    -0.5607 H       
  81 H81           -2.4735     7.6000     0.2567 H       
  82 H82          -17.2799     8.8848    -1.2998 H       
  83 H83          -13.3264    10.9263    -3.4801 H       
  84 H84          -13.1476     9.9012    -1.2778 H       
  85 H85          -17.6047     7.2733     1.6370 H       
  86 H86          -15.1735     3.3827     3.5088 H       
  87 H87          -14.6723     4.2108     1.2737 H       
  88 H88          -18.9302     7.4501     3.7265 H       
  89 H89          -19.4349     6.6185     5.9595 H       
  90 H90          -18.2284     4.6894     6.8881 H       
  91 H91          -16.4997     3.5588     5.5975 H       
  92 H92          -18.6752     9.4958    -3.2579 H       
  93 H93          -18.8550    10.5257    -5.4578 H       
  94 H94          -16.8938    11.5374    -6.5394 H       
  95 H95          -14.7218    11.5383    -5.4373 H       
  96 H96            0.4898    10.3141    -1.1584 H       
  97 H97            2.1954    11.8836    -1.9829 H       
  98 H98            1.9570    12.9094    -4.2063 H       
  99 H99            0.0140    12.3717    -5.6164 H       
 100 H100          -1.6985    10.8001    -4.8107 H       
@<TRIPOS>BOND
   1    1    2 1
   2    1    7 2
   3    1    6 1
   4    2   59 1
   5    2   60 1
   6    3    4 2
   7    4    5 1
   8    4    8 am
   9    5    6 1
  10    5   61 1
  11    5   62 1
  12    6   63 1
  13    7   64 1
  14    8    9 1
  15    8   65 1
  16    9   10 ar
  17    9   14 ar
  18   10   11 ar
  19   10   27 1
  20   11   12 ar
  21   11   66 1
  22   12   13 ar
  23   12   15 1
  24   13   14 ar
  25   13   67 1
  26   14   68 1
  27   15   16 am
  28   15   17 2
  29   16   18 1
  30   16   69 1
  31   18   19 ar
  32   18   20 ar
  33   19   23 ar
  34   19   70 1
  35   20   21 ar
  36   20   71 1
  37   21   22 ar
  38   21   72 1
  39   22   23 ar
  40   22   24 1
  41   23   73 1
  42   24   25 1
  43   24   26 1
  44   25   34 1
  45   25   74 1
  46   25   75 1
  47   26   33 1
  48   26   76 1
  49   26   77 1
  50   27   28 ar
  51   27   32 ar
  52   28   29 ar
  53   28   78 1
  54   29   30 ar
  55   29   79 1
  56   30   31 ar
  57   30   53 1
  58   31   32 ar
  59   31   80 1
  60   32   81 1
  61   33   35 ar
  62   33   39 ar
  63   34   40 ar
  64   34   44 ar
  65   35   36 ar
  66   35   82 1
  67   36   37 ar
  68   36   49 ar
  69   37   38 ar
  70   37   52 ar
  71   38   39 ar
  72   38   83 1
  73   39   84 1
  74   40   41 ar
  75   40   85 1
  76   41   42 ar
  77   41   45 ar
  78   42   43 ar
  79   42   48 ar
  80   43   44 ar
  81   43   86 1
  82   44   87 1
  83   45   46 ar
  84   45   88 1
  85   46   47 ar
  86   46   89 1
  87   47   48 ar
  88   47   90 1
  89   48   91 1
  90   49   50 ar
  91   49   92 1
  92   50   51 ar
  93   50   93 1
  94   51   52 ar
  95   51   94 1
  96   52   95 1
  97   53   54 ar
  98   53   58 ar
  99   54   55 ar
 100   54   96 1
 101   55   56 ar
 102   55   97 1
 103   56   57 ar
 104   56   98 1
 105   57   58 ar
 106   57   99 1
 107   58  100 1

#	End of record

