#	Name: ASD02038101
#	Creating user name:	WinNT
#	Creation time:	15. 06. 2019 20:16

#	Modifying user name:	WinNT
#	Modification time:	15. 06. 2019 20:16

#	Program:	/corina/corina34_cracker 3.40 0067  02.08.2006

@<TRIPOS>MOLECULE
ASD02038101
  50   51    0    0    0
SMALL
NO_CHARGES


@<TRIPOS>ATOM
   1 C1             0.2078     1.2241    -1.0075 C.ar    
   2 C2             0.1867    -0.1523    -0.8522 C.ar    
   3 C3             1.4165     1.8944    -1.1315 C.ar    
   4 C4             2.6047     1.1905    -1.1005 C.ar    
   5 C5             2.5869    -0.1958    -0.9442 C.ar    
   6 C6             1.3679    -0.8639    -0.8195 C.ar    
   7 C7             3.8549    -0.9545    -0.9107 C.2     
   8 N8             5.1875    -3.8462     0.5022 N.3     
   9 C9             5.1284    -3.0453    -0.7279 C.3     
  10 C10            3.8355    -2.2717    -0.7620 C.2     
  11 C11            6.4371    -4.6155     0.5700 C.3     
  12 C12            6.4620    -5.4350     1.8617 C.3     
  13 C13            7.7635    -6.2362     1.9323 C.3     
  14 O14            6.3825    -4.5556     2.9853 O.3     
  15 O15            7.7363    -7.0890     3.0786 O.3     
  16 C16            8.8261    -7.8749     3.2896 C.ar    
  17 C17            8.8652    -8.7264     4.3837 C.ar    
  18 C18            9.9713    -9.5251     4.5984 C.ar    
  19 C19           11.0443    -9.4756     3.7185 C.ar    
  20 C20           11.0042    -8.6229     2.6233 C.ar    
  21 C21            9.8952    -7.8287     2.4072 C.ar    
  22 F22           -0.9523     1.9154    -1.0441 F       
  23 F23            1.4312     3.2368    -1.2833 F       
  24 N24           12.1656   -10.2843     3.9355 N.am    
  25 S25           13.5650    -9.6197     4.5204 S.o2    
  26 O26           14.4576   -10.7202     4.6277 O.2     
  27 O27           13.8361    -8.5399     3.6373 O.2     
  28 C28           13.1185    -8.9996     6.1656 C.3     
  29 H29           -0.7566    -0.6693    -0.7560 H       
  30 H30            3.5454     1.7121    -1.1973 H       
  31 H31            1.3495    -1.9369    -0.6983 H       
  32 H32            4.7972    -0.4358    -1.0073 H       
  33 H33            5.0767    -3.2637     1.3186 H       
  34 H34            5.9681    -2.3506    -0.7498 H       
  35 H35            5.1800    -3.7051    -1.5939 H       
  36 H36            2.8932    -2.7905    -0.6654 H       
  37 H37            6.4977    -5.2862    -0.2871 H       
  38 H38            7.2859    -3.9317     0.5570 H       
  39 H39            5.6133    -6.1187     1.8747 H       
  40 H40            7.8670    -6.8414     1.0317 H       
  41 H41            8.6081    -5.5514     2.0089 H       
  42 H42            7.1076    -3.9180     3.0378 H       
  43 H43            8.0307    -8.7645     5.0683 H       
  44 H44           10.0018   -10.1878     5.4507 H       
  45 H45           11.8384    -8.5837     1.9384 H       
  46 H46            9.8637    -7.1657     1.5552 H       
  47 H47           12.1231   -11.2341     3.7433 H       
  48 H48           12.6880    -9.8094     6.7546 H       
  49 H49           14.0100    -8.6209     6.6655 H       
  50 H50           12.3891    -8.1958     6.0654 H       
@<TRIPOS>BOND
   1    1    2 ar
   2    1    3 ar
   3    1   22 1
   4    2    6 ar
   5    2   29 1
   6    3    4 ar
   7    3   23 1
   8    4    5 ar
   9    4   30 1
  10    5    6 ar
  11    5    7 1
  12    6   31 1
  13    7   10 2
  14    7   32 1
  15    8    9 1
  16    8   11 1
  17    8   33 1
  18    9   10 1
  19    9   34 1
  20    9   35 1
  21   10   36 1
  22   11   12 1
  23   11   37 1
  24   11   38 1
  25   12   14 1
  26   12   13 1
  27   12   39 1
  28   13   15 1
  29   13   40 1
  30   13   41 1
  31   14   42 1
  32   15   16 1
  33   16   17 ar
  34   16   21 ar
  35   17   18 ar
  36   17   43 1
  37   18   19 ar
  38   18   44 1
  39   19   20 ar
  40   19   24 1
  41   20   21 ar
  42   20   45 1
  43   21   46 1
  44   24   25 am
  45   24   47 1
  46   25   26 2
  47   25   27 2
  48   25   28 1
  49   28   48 1
  50   28   49 1
  51   28   50 1

#	End of record

