#	Name: ASD04560189
#	Creating user name:	WinNT
#	Creation time:	15. 06. 2019 20:49

#	Modifying user name:	WinNT
#	Modification time:	15. 06. 2019 20:49

#	Program:	/corina/corina34_cracker 3.40 0067  02.08.2006

@<TRIPOS>MOLECULE
ASD04560189
  40   42    0    0    0
SMALL
NO_CHARGES


@<TRIPOS>ATOM
   1 C1            -0.0157     1.3632    -0.0077 C.ar    
   2 C2             0.0032    -0.0046    -0.0223 C.ar    
   3 C3             1.2279    -0.6718    -0.0398 C.ar    
   4 N4             2.3710     0.0016    -0.0419 N.ar    
   5 C5             2.3971     1.3178    -0.0282 C.ar    
   6 C6             1.2088     2.0502    -0.0108 C.ar    
   7 C7             1.2392     3.5246     0.0045 C.2     
   8 O8             0.1988     4.1541     0.0196 O.2     
   9 N9             2.4200     4.1743     0.0019 N.am    
  10 C10            2.4505     5.5701    -0.0966 C.ar    
  11 C11            3.4269     6.2934     0.5757 C.ar    
  12 C12            1.5401     7.6106    -0.9674 C.ar    
  13 C13            1.5079     6.2333    -0.8712 C.ar    
  14 S14            1.2573    -2.4335    -0.0586 S.3     
  15 C15            3.0447    -2.7178    -0.0768 C.3     
  16 C16            3.3175    -4.1998    -0.0948 C.2     
  17 C17            4.6997    -4.6911    -0.1117 C.2     
  18 O18            2.3942    -4.9865    -0.0953 O.2     
  19 O19            5.8222    -3.9463    -0.1129 O.3     
  20 C20            3.4555     7.6706     0.4768 C.ar    
  21 C21            2.5114     8.3303    -0.2920 C.ar    
  22 F22            2.5411     9.6776    -0.3873 F       
  23 N23            6.8158    -4.6342    -0.1280 N.2     
  24 C24            6.5255    -5.9116    -0.1390 C.2     
  25 C25            5.1072    -5.9996    -0.1234 C.2     
  26 C26            7.4855    -7.0409    -0.1584 C.2     
  27 O27            7.0776    -8.1844    -0.1676 O.2     
  28 O28            8.8100    -6.7985    -0.1659 O.3     
  29 H29           -0.9514     1.9025     0.0015 H       
  30 H30           -0.9215    -0.5626    -0.0200 H       
  31 H31            3.3452     1.8349    -0.0304 H       
  32 H32            3.2487     3.6745     0.0681 H       
  33 H33            4.1632     5.7793     1.1757 H       
  34 H34            0.8072     8.1268    -1.5697 H       
  35 H35            0.7504     5.6723    -1.3984 H       
  36 H36            3.4768    -2.2581    -0.9657 H       
  37 H37            3.4918    -2.2769     0.8141 H       
  38 H38            4.2145     8.2335     0.9998 H       
  39 H39            4.4942    -6.8888    -0.1260 H       
  40 H40            9.3969    -7.5669    -0.1786 H       
@<TRIPOS>BOND
   1    1    2 ar
   2    1    6 ar
   3    1   29 1
   4    2    3 ar
   5    2   30 1
   6    3    4 ar
   7    3   14 1
   8    4    5 ar
   9    5    6 ar
  10    5   31 1
  11    6    7 1
  12    7    8 2
  13    7    9 am
  14    9   10 1
  15    9   32 1
  16   10   11 ar
  17   10   13 ar
  18   11   20 ar
  19   11   33 1
  20   12   13 ar
  21   12   21 ar
  22   12   34 1
  23   13   35 1
  24   14   15 1
  25   15   16 1
  26   15   36 1
  27   15   37 1
  28   16   17 1
  29   16   18 2
  30   17   19 1
  31   17   25 2
  32   19   23 1
  33   20   21 ar
  34   20   38 1
  35   21   22 1
  36   23   24 2
  37   24   25 1
  38   24   26 1
  39   25   39 1
  40   26   27 2
  41   26   28 1
  42   28   40 1

#	End of record

