#	Name: ASD01913188
#	Creating user name:	WinNT
#	Creation time:	15. 06. 2019 20:01

#	Modifying user name:	WinNT
#	Modification time:	15. 06. 2019 20:01

#	Program:	/corina/corina34_cracker 3.40 0067  02.08.2006

@<TRIPOS>MOLECULE
ASD01913188
  31   33    0    0    0
SMALL
NO_CHARGES


@<TRIPOS>ATOM
   1 N1            -0.0169     1.3964     0.0097 N.2     
   2 N2             0.0021    -0.0041     0.0020 N.pl3   
   3 C3             1.2268     1.8293     0.0002 C.2     
   4 C4             2.0821     0.7142    -0.0140 C.2     
   5 C5             1.3051    -0.4067    -0.0126 C.2     
   6 C6             1.7880    -1.8055    -0.0243 C.ar    
   7 C7             1.6522     3.2506     0.0030 C.ar    
   8 N8             2.9446     3.5506    -0.0081 N.ar    
   9 C9             3.3636     4.7997    -0.0061 C.ar    
  10 C10            2.4646     5.8501     0.0078 C.ar    
  11 C11            1.1035     5.5806     0.0198 C.ar    
  12 C12            0.6914     4.2591     0.0116 C.ar    
  13 C13            2.9582     7.2739     0.0105 C.3     
  14 C14            0.8763    -2.8613    -0.0213 C.ar    
  15 C15            1.3329    -4.1633    -0.0322 C.ar    
  16 C16            3.1568    -2.0737    -0.0441 C.ar    
  17 C17            3.6008    -3.3801    -0.0549 C.ar    
  18 C18            2.6917    -4.4228    -0.0460 C.ar    
  19 H19           -0.7746    -0.5852     0.0068 H       
  20 H20            3.1617     0.7403    -0.0245 H       
  21 H21            4.4237     5.0060    -0.0151 H       
  22 H22            0.3817     6.3840     0.0308 H       
  23 H23           -0.3603     4.0134     0.0201 H       
  24 H24            3.0675     7.6225    -1.0165 H       
  25 H25            2.2413     7.9061     0.5344 H       
  26 H26            3.9229     7.3231     0.5155 H       
  27 H27           -0.1847    -2.6600    -0.0101 H       
  28 H28            0.6280    -4.9816    -0.0295 H       
  29 H29            3.8675    -1.2605    -0.0513 H       
  30 H30            4.6603    -3.5890    -0.0702 H       
  31 H31            3.0441    -5.4436    -0.0542 H       
@<TRIPOS>BOND
   1    1    2 1
   2    1    3 2
   3    2    5 1
   4    2   19 1
   5    3    4 1
   6    3    7 1
   7    4    5 2
   8    4   20 1
   9    5    6 1
  10    6   14 ar
  11    6   16 ar
  12    7    8 ar
  13    7   12 ar
  14    8    9 ar
  15    9   10 ar
  16    9   21 1
  17   10   11 ar
  18   10   13 1
  19   11   12 ar
  20   11   22 1
  21   12   23 1
  22   13   24 1
  23   13   25 1
  24   13   26 1
  25   14   15 ar
  26   14   27 1
  27   15   18 ar
  28   15   28 1
  29   16   17 ar
  30   16   29 1
  31   17   18 ar
  32   17   30 1
  33   18   31 1

#	End of record

