#	Name: ASD01190110
#	Creating user name:	WinNT
#	Creation time:	15. 06. 2019 19:07

#	Modifying user name:	WinNT
#	Modification time:	15. 06. 2019 19:07

#	Program:	/corina/corina34_cracker 3.40 0067  02.08.2006

@<TRIPOS>MOLECULE
ASD01190110
  45   49    0    0    0
SMALL
NO_CHARGES


@<TRIPOS>ATOM
   1 C1            -2.0035    -6.8344    -1.0200 C.2     
   2 N2            -1.2455    -5.8587    -0.6110 N.2     
   3 C3            -1.0455    -4.7617    -1.3799 C.2     
   4 C4            -1.6640    -4.6783    -2.6323 C.2     
   5 C5            -2.4800    -5.7487    -3.0526 C.2     
   6 N6            -2.6282    -6.8069    -2.2258 N.am    
   7 N7            -1.2950    -3.4775    -3.1922 N.pl3   
   8 C8            -0.3007    -3.5739    -1.2182 C.2     
   9 C9            -0.4728    -2.8242    -2.3261 C.2     
  10 O10           -3.0394    -5.7195    -4.1360 O.2     
  11 C11            0.5375    -3.2081    -0.0205 C.3     
  12 C12            1.5471    -4.3241     0.2555 C.3     
  13 O13            1.2350    -1.9886    -0.2817 O.3     
  14 N14           -2.8445    -2.8005     4.4522 N.pl3   
  15 N15           -3.2375    -4.1395     4.5483 N.2     
  16 C16           -2.6717    -4.8408     3.6071 C.2     
  17 C17           -1.8413    -3.9385     2.8156 C.ar    
  18 C18           -1.0131    -4.1060     1.7002 C.ar    
  19 C19           -0.3544    -3.0292     1.1810 C.ar    
  20 C20           -0.4980    -1.7697     1.7501 C.ar    
  21 C21           -1.3005    -1.5814     2.8396 C.ar    
  22 C22           -1.9854    -2.6610     3.3907 C.ar    
  23 C23           -3.2650    -1.7670     5.2993 C.ar    
  24 C24           -4.5567    -1.7677     5.8089 C.ar    
  25 C25           -4.9692    -0.7478     6.6438 C.ar    
  26 C26           -4.0956     0.2751     6.9729 C.ar    
  27 C27           -2.8069     0.2776     6.4657 C.ar    
  28 C28           -2.3887    -0.7433     5.6351 C.ar    
  29 F29           -4.5011     1.2721     7.7894 F       
  30 F30            2.3751    -4.4902    -0.8599 F       
  31 F31            2.3252    -3.9845     1.3674 F       
  32 F32            0.8643    -5.5180     0.5113 F       
  33 H33           -2.1364    -7.6956    -0.3820 H       
  34 H34           -3.1854    -7.5537    -2.4957 H       
  35 H35           -1.5742    -3.1502    -4.0616 H       
  36 H36           -0.0276    -1.8556    -2.4991 H       
  37 H37            0.6562    -1.2361    -0.4655 H       
  38 H38           -2.7949    -5.9010     3.4423 H       
  39 H39           -0.8957    -5.0818     1.2527 H       
  40 H40            0.0316    -0.9293     1.3261 H       
  41 H41           -1.4032    -0.5973     3.2725 H       
  42 H42           -5.2385    -2.5650     5.5523 H       
  43 H43           -5.9739    -0.7478     7.0401 H       
  44 H44           -2.1272     1.0764     6.7233 H       
  45 H45           -1.3821    -0.7435     5.2437 H       
@<TRIPOS>BOND
   1    1    2 2
   2    1    6 1
   3    1   33 1
   4    2    3 1
   5    3    4 2
   6    3    8 1
   7    4    5 1
   8    4    7 1
   9    5    6 am
  10    5   10 2
  11    6   34 1
  12    7    9 1
  13    7   35 1
  14    8    9 2
  15    8   11 1
  16    9   36 1
  17   11   12 1
  18   11   13 1
  19   11   19 1
  20   12   30 1
  21   12   31 1
  22   12   32 1
  23   13   37 1
  24   14   15 1
  25   14   22 1
  26   14   23 1
  27   15   16 2
  28   16   17 1
  29   16   38 1
  30   17   18 ar
  31   17   22 ar
  32   18   19 ar
  33   18   39 1
  34   19   20 ar
  35   20   21 ar
  36   20   40 1
  37   21   22 ar
  38   21   41 1
  39   23   24 ar
  40   23   28 ar
  41   24   25 ar
  42   24   42 1
  43   25   26 ar
  44   25   43 1
  45   26   27 ar
  46   26   29 1
  47   27   28 ar
  48   27   44 1
  49   28   45 1

#	End of record

