#	Name: ASD03331082
#	Creating user name:	WinNT
#	Creation time:	15. 06. 2019 20:38

#	Modifying user name:	WinNT
#	Modification time:	15. 06. 2019 20:38

#	Program:	/corina/corina34_cracker 3.40 0067  02.08.2006

@<TRIPOS>MOLECULE
ASD03331082
  57   59    0    0    0
SMALL
NO_CHARGES


@<TRIPOS>ATOM
   1 N1            -1.0928     1.6833    -0.4402 N.pl3   
   2 C2            -0.7897     0.3577    -0.4246 C.2     
   3 C3             0.5995    -0.2250    -0.4213 C.3     
   4 N4             1.4118     0.4709     0.5889 N.3     
   5 C5             2.0669     1.6509     0.0216 C.3     
   6 C6             1.1904     2.3025    -1.0442 C.3     
   7 C7            -0.1213     2.7805    -0.4156 C.3     
   8 C8            -2.4528     1.7912    -0.4704 C.2     
   9 N9            -2.9691     0.5845    -0.4558 N.2     
  10 C10           -1.9686    -0.3234    -0.4247 C.2     
  11 C11           -2.1255    -1.7882    -0.3963 C.2     
  12 O12           -1.1430    -2.5046    -0.3698 O.2     
  13 N13           -3.3577    -2.3341    -0.3998 N.am    
  14 C14            2.3954    -0.4388     1.1913 C.3     
  15 C15           -2.8658    -4.3484     0.8972 C.3     
  16 C16           -3.5137    -3.7905    -0.3716 C.3     
  17 C17           -5.0022    -4.1443    -0.3821 C.3     
  18 C18           -5.6288    -3.6750    -1.6966 C.3     
  19 C19           -7.0787    -4.1577    -1.7715 C.3     
  20 C20           -2.8361    -4.3999    -1.6005 C.3     
  21 O21           -5.5982    -2.2476    -1.7560 O.3     
  22 C22           -3.2172     3.0563    -0.5122 C.ar    
  23 C23           -4.3037     3.1910    -1.3811 C.ar    
  24 C24           -5.0144     4.3753    -1.4152 C.ar    
  25 C25           -4.6511     5.4275    -0.5907 C.ar    
  26 C26           -3.5734     5.2986     0.2728 C.ar    
  27 C27           -2.8602     4.1179     0.3197 C.ar    
  28 F28           -5.3489     6.5837    -0.6281 F       
  29 F29           -4.6580     2.1655    -2.1861 F       
  30 Cl30          -3.1247     6.6229     1.3016 Cl      
  31 H31            0.5487    -1.2867    -0.1798 H       
  32 H32            1.0514    -0.0952    -1.4047 H       
  33 H33            2.2587     2.3712     0.8169 H       
  34 H34            3.0147     1.3534    -0.4271 H       
  35 H35            1.7169     3.1539    -1.4756 H       
  36 H36            0.9733     1.5769    -1.8281 H       
  37 H37           -0.5111     3.6252    -0.9835 H       
  38 H38            0.0584     3.0850     0.6155 H       
  39 H39           -4.1413    -1.7628    -0.4209 H       
  40 H40            3.0121    -0.8779     0.4071 H       
  41 H41            3.0285     0.1170     1.8829 H       
  42 H42            1.8755    -1.2305     1.7308 H       
  43 H43           -3.3486    -3.9143     1.7728 H       
  44 H44           -2.9819    -5.4320     0.9182 H       
  45 H45           -1.8054    -4.0964     0.9047 H       
  46 H46           -5.1198    -5.2239    -0.2886 H       
  47 H47           -5.4988    -3.6511     0.4536 H       
  48 H48           -5.0654    -4.0857    -2.5346 H       
  49 H49           -7.5251    -3.8233    -2.7080 H       
  50 H50           -7.1020    -5.2465    -1.7262 H       
  51 H51           -7.6420    -3.7470    -0.9335 H       
  52 H52           -1.7574    -4.2612    -1.5269 H       
  53 H53           -3.0629    -5.4649    -1.6499 H       
  54 H54           -3.2051    -3.9078    -2.5004 H       
  55 H55           -5.9802    -1.8793    -2.5644 H       
  56 H56           -5.8542     4.4811    -2.0860 H       
  57 H57           -2.0243     4.0175     0.9962 H       
@<TRIPOS>BOND
   1    1    2 1
   2    1    7 1
   3    1    8 1
   4    2    3 1
   5    2   10 2
   6    3    4 1
   7    3   31 1
   8    3   32 1
   9    4    5 1
  10    4   14 1
  11    5    6 1
  12    5   33 1
  13    5   34 1
  14    6    7 1
  15    6   35 1
  16    6   36 1
  17    7   37 1
  18    7   38 1
  19    8    9 2
  20    8   22 1
  21    9   10 1
  22   10   11 1
  23   11   12 2
  24   11   13 am
  25   13   16 1
  26   13   39 1
  27   14   40 1
  28   14   41 1
  29   14   42 1
  30   15   16 1
  31   15   43 1
  32   15   44 1
  33   15   45 1
  34   16   17 1
  35   16   20 1
  36   17   18 1
  37   17   46 1
  38   17   47 1
  39   18   19 1
  40   18   21 1
  41   18   48 1
  42   19   49 1
  43   19   50 1
  44   19   51 1
  45   20   52 1
  46   20   53 1
  47   20   54 1
  48   21   55 1
  49   22   23 ar
  50   22   27 ar
  51   23   24 ar
  52   23   29 1
  53   24   25 ar
  54   24   56 1
  55   25   26 ar
  56   25   28 1
  57   26   27 ar
  58   26   30 1
  59   27   57 1

#	End of record

