#	Name: ASD07330017
#	Creating user name:	WinNT
#	Creation time:	15. 06. 2019 21:11

#	Modifying user name:	WinNT
#	Modification time:	15. 06. 2019 21:11

#	Program:	/corina/corina34_cracker 3.40 0067  02.08.2006

@<TRIPOS>MOLECULE
ASD07330017
  72   75    0    0    0
SMALL
NO_CHARGES


@<TRIPOS>ATOM
   1 C1             1.2404     2.8328     1.5102 C.ar    
   2 C2             2.1319     2.5883     2.5443 C.ar    
   3 N3             3.1379     1.7505     2.4076 N.ar    
   4 C4             3.3469     1.0974     1.2688 C.ar    
   5 C5             2.4761     1.2990     0.1738 C.ar    
   6 C6             1.4047     2.1833     0.2995 C.ar    
   7 N7             4.3830     0.2348     1.1268 N.2     
   8 C8             4.5914    -0.4054     0.0159 C.2     
   9 N9             3.8055    -0.2718    -1.0844 N.am    
  10 C10            2.7380     0.5608    -1.0687 C.2     
  11 O11            2.0234     0.6921    -2.0453 O.2     
  12 C12            4.1024    -1.0009    -2.2444 C.ar    
  13 C13            3.2805    -2.0497    -2.6349 C.ar    
  14 C14            3.5731    -2.7671    -3.7776 C.ar    
  15 C15            4.6882    -2.4402    -4.5358 C.ar    
  16 C16            5.5098    -1.3923    -4.1461 C.ar    
  17 C17            5.2152    -0.6708    -3.0064 C.ar    
  18 C18            5.7671    -1.3453    -0.0566 C.3     
  19 C19            6.7256    -1.0532     1.0996 C.3     
  20 N20            5.2933    -2.7283     0.0394 N.am    
  21 C21            4.4535    -3.1382     1.1677 C.3     
  22 C22            2.9804    -3.0611     0.7615 C.3     
  23 C23            2.1100    -3.6126     1.8925 C.3     
  24 B24            0.6110    -3.6523     1.4274 Du      
  25 O25           -0.2923    -4.5735     2.0207 O.3     
  26 O26            0.1585    -2.7671     0.4135 O.3     
  27 C27            5.6300    -3.6234    -0.9102 C.2     
  28 C28            5.1426    -5.0460    -0.8114 C.3     
  29 O29            6.3252    -3.2841    -1.8442 O.2     
  30 C30            5.6553    -5.8355    -1.9882 C.ar    
  31 C31            6.8704    -6.4899    -1.9045 C.ar    
  32 C32            4.9077    -5.9096    -3.1486 C.ar    
  33 C33            5.3767    -6.6338    -4.2284 C.ar    
  34 C34            6.5957    -7.2851    -4.1475 C.ar    
  35 C35            7.3412    -7.2145    -2.9827 C.ar    
  36 F36            7.0551    -7.9932    -5.2024 F       
  37 C37            8.6686    -7.9225    -2.8933 C.3     
  38 F38            9.2284    -7.7060    -1.6295 F       
  39 F39            8.4795    -9.2945    -3.0907 F       
  40 F40            9.5301    -7.4242    -3.8765 F       
  41 O41            4.9760    -3.1472    -5.6606 O.3     
  42 C42            6.2989    -3.6597    -7.6171 C.3     
  43 C43            6.1392    -2.7561    -6.3928 C.3     
  44 H44            0.4210     3.5222     1.6506 H       
  45 H45            1.9972     3.0990     3.4863 H       
  46 H46            0.7246     2.3549    -0.5218 H       
  47 H47            2.4127    -2.3045    -2.0446 H       
  48 H48            2.9342    -3.5831    -4.0812 H       
  49 H49            6.3778    -1.1385    -4.7365 H       
  50 H50            5.8546     0.1452    -2.7034 H       
  51 H51            6.2871    -1.2044    -1.0041 H       
  52 H52            7.5309    -1.7878     1.0984 H       
  53 H53            7.1450    -0.0542     0.9803 H       
  54 H54            6.1839    -1.1094     2.0437 H       
  55 H55            4.6994    -4.1617     1.4506 H       
  56 H56            4.6323    -2.4745     2.0137 H       
  57 H57            2.7106    -2.0228     0.5685 H       
  58 H58            2.8210    -3.6517    -0.1407 H       
  59 H59            2.4388    -4.6205     2.1455 H       
  60 H60            2.2019    -2.9699     2.7680 H       
  61 H61           -1.1920    -4.5236     1.6697 H       
  62 H62           -0.7783    -2.8657     0.1946 H       
  63 H63            5.5092    -5.4923     0.1130 H       
  64 H64            4.0527    -5.0576    -0.8132 H       
  65 H65            7.4518    -6.4344    -0.9961 H       
  66 H66            3.9567    -5.4017    -3.2113 H       
  67 H67            4.7923    -6.6918    -5.1347 H       
  68 H68            6.4045    -4.6951    -7.2933 H       
  69 H69            5.4198    -3.5663    -8.2548 H       
  70 H70            7.1862    -3.3614    -8.1756 H       
  71 H71            6.0336    -1.7207    -6.7167 H       
  72 H72            7.0183    -2.8495    -5.7552 H       
@<TRIPOS>BOND
   1    1    2 ar
   2    1    6 ar
   3    1   44 1
   4    2    3 ar
   5    2   45 1
   6    3    4 ar
   7    4    5 ar
   8    4    7 1
   9    5    6 ar
  10    5   10 1
  11    6   46 1
  12    7    8 2
  13    8    9 1
  14    8   18 1
  15    9   10 am
  16    9   12 1
  17   10   11 2
  18   12   13 ar
  19   12   17 ar
  20   13   14 ar
  21   13   47 1
  22   14   15 ar
  23   14   48 1
  24   15   16 ar
  25   15   41 1
  26   16   17 ar
  27   16   49 1
  28   17   50 1
  29   18   19 1
  30   18   20 1
  31   18   51 1
  32   19   52 1
  33   19   53 1
  34   19   54 1
  35   20   21 1
  36   20   27 am
  37   21   22 1
  38   21   55 1
  39   21   56 1
  40   22   23 1
  41   22   57 1
  42   22   58 1
  43   23   24 1
  44   23   59 1
  45   23   60 1
  46   24   25 1
  47   24   26 1
  48   25   61 1
  49   26   62 1
  50   27   28 1
  51   27   29 2
  52   28   30 1
  53   28   63 1
  54   28   64 1
  55   30   31 ar
  56   30   32 ar
  57   31   35 ar
  58   31   65 1
  59   32   33 ar
  60   32   66 1
  61   33   34 ar
  62   33   67 1
  63   34   35 ar
  64   34   36 1
  65   35   37 1
  66   37   38 1
  67   37   39 1
  68   37   40 1
  69   41   43 1
  70   42   43 1
  71   42   68 1
  72   42   69 1
  73   42   70 1
  74   43   71 1
  75   43   72 1

#	End of record

