#	Name: ASD03330010
#	Creating user name:	WinNT
#	Creation time:	15. 06. 2019 20:36

#	Modifying user name:	WinNT
#	Modification time:	15. 06. 2019 20:36

#	Program:	/corina/corina34_cracker 3.40 0067  02.08.2006

@<TRIPOS>MOLECULE
ASD03330010
  59   62    0    0    0
SMALL
NO_CHARGES


@<TRIPOS>ATOM
   1 C1            -0.0168     1.3857     0.0097 C.ar    
   2 C2             0.0021    -0.0041     0.0020 C.ar    
   3 C3            -1.1731    -0.7218     0.0089 C.ar    
   4 C4            -2.3931    -0.0521     0.0242 C.ar    
   5 C5            -2.4101     1.3565     0.0324 C.ar    
   6 C6            -1.2016     2.0646     0.0303 C.ar    
   7 N7            -3.7006    -0.4788     0.0344 N.pl3   
   8 C8            -4.5290     0.6265     0.0488 C.2     
   9 C9            -3.7693     1.7530     0.0478 C.2     
  10 C10           -5.9991     0.5898     0.0628 C.2     
  11 O11           -6.6334     1.6278     0.0745 O.2     
  12 N12           -6.6437    -0.5938     0.0628 N.am    
  13 C13           -8.1081    -0.6304     0.0769 C.3     
  14 C14           -8.5820    -2.0851     0.0738 C.3     
  15 C15          -10.0885    -2.1227     0.0882 C.ar    
  16 C16          -10.7897    -2.1336    -1.1036 C.ar    
  17 C17          -12.1703    -2.1681    -1.0940 C.ar    
  18 C18          -12.8545    -2.1918     0.1147 C.ar    
  19 C19          -12.1470    -2.1807     1.3100 C.ar    
  20 C20          -10.7663    -2.1520     1.2932 C.ar    
  21 N21          -14.2508    -2.2262     0.1280 N.3     
  22 Cl22           1.4792     2.2664     0.0001 Cl      
  23 C23          -14.7639    -2.2466     1.5049 C.3     
  24 C24          -16.2936    -2.2037     1.4771 C.3     
  25 C25          -16.2863    -3.3318    -0.6644 C.3     
  26 C26          -14.7566    -3.3747    -0.6366 C.3     
  27 N27          -16.7994    -3.3523     0.7125 N.3     
  28 C28          -18.2679    -3.3884     0.7265 C.3     
  29 C29           -4.4414     3.6414     1.5077 C.3     
  30 C30           -4.2815     3.1702     0.0609 C.3     
  31 H31            0.9475    -0.5261    -0.0098 H       
  32 H32           -1.1482    -1.8015     0.0022 H       
  33 H33           -1.2067     3.1446     0.0365 H       
  34 H34           -3.9928    -1.4037     0.0317 H       
  35 H35           -6.1379    -1.4215     0.0536 H       
  36 H36           -8.4755    -0.1305     0.9731 H       
  37 H37           -8.4928    -0.1211    -0.8068 H       
  38 H38           -8.2147    -2.5850    -0.8225 H       
  39 H39           -8.1974    -2.5944     0.9574 H       
  40 H40          -10.2572    -2.1148    -2.0430 H       
  41 H41          -12.7174    -2.1762    -2.0252 H       
  42 H42          -12.6759    -2.1991     2.2515 H       
  43 H43          -10.2156    -2.1437     2.2222 H       
  44 H44          -14.4347    -3.1590     2.0022 H       
  45 H45          -14.3856    -1.3799     2.0469 H       
  46 H46          -16.6772    -2.2481     2.4964 H       
  47 H47          -16.6229    -1.2785     1.0042 H       
  48 H48          -16.6155    -2.4194    -1.1617 H       
  49 H49          -16.6646    -4.1985    -1.2064 H       
  50 H50          -14.3730    -3.3304    -1.6559 H       
  51 H51          -14.4273    -4.2999    -0.1637 H       
  52 H52          -18.6582    -2.4731     0.2816 H       
  53 H53          -18.6157    -4.2479     0.1535 H       
  54 H54          -18.6195    -3.4711     1.7550 H       
  55 H55           -4.8118     4.6665     1.5172 H       
  56 H56           -5.1501     2.9942     2.0244 H       
  57 H57           -3.4762     3.5992     2.0124 H       
  58 H58           -3.5728     3.8174    -0.4558 H       
  59 H59           -5.2467     3.2124    -0.4437 H       
@<TRIPOS>BOND
   1    1    2 ar
   2    1   22 1
   3    1    6 ar
   4    2    3 ar
   5    2   31 1
   6    3    4 ar
   7    3   32 1
   8    4    5 ar
   9    4    7 1
  10    5    6 ar
  11    5    9 1
  12    6   33 1
  13    7    8 1
  14    7   34 1
  15    8    9 2
  16    8   10 1
  17    9   30 1
  18   10   11 2
  19   10   12 am
  20   12   13 1
  21   12   35 1
  22   13   14 1
  23   13   36 1
  24   13   37 1
  25   14   15 1
  26   14   38 1
  27   14   39 1
  28   15   16 ar
  29   15   20 ar
  30   16   17 ar
  31   16   40 1
  32   17   18 ar
  33   17   41 1
  34   18   19 ar
  35   18   21 1
  36   19   20 ar
  37   19   42 1
  38   20   43 1
  39   21   23 1
  40   21   26 1
  41   23   24 1
  42   23   44 1
  43   23   45 1
  44   24   27 1
  45   24   46 1
  46   24   47 1
  47   25   26 1
  48   25   27 1
  49   25   48 1
  50   25   49 1
  51   26   50 1
  52   26   51 1
  53   27   28 1
  54   28   52 1
  55   28   53 1
  56   28   54 1
  57   29   30 1
  58   29   55 1
  59   29   56 1
  60   29   57 1
  61   30   58 1
  62   30   59 1

#	End of record

