#	Name: ASD01913833
#	Creating user name:	WinNT
#	Creation time:	15. 06. 2019 20:02

#	Modifying user name:	WinNT
#	Modification time:	15. 06. 2019 20:02

#	Program:	/corina/corina34_cracker 3.40 0067  02.08.2006

@<TRIPOS>MOLECULE
ASD01913833
  44   47    0    0    0
SMALL
NO_CHARGES


@<TRIPOS>ATOM
   1 C1            -0.0233     1.4277    -0.0322 C.ar    
   2 C2            -0.0022    -0.0041    -0.0276 C.1     
   3 C3             0.0152    -1.1780    -0.0237 C.1     
   4 C4             0.0363    -2.6098    -0.0191 C.ar    
   5 C5            -1.1324    -3.3384     0.2481 C.ar    
   6 C6             0.1561    -5.3344    -0.0290 C.ar    
   7 N7             1.2413    -4.6188    -0.2833 N.ar    
   8 C8             1.2195    -3.3023    -0.2862 C.ar    
   9 C9            -1.0616    -4.7170     0.2407 C.ar    
  10 N10            0.2332    -6.7251    -0.0385 N.am    
  11 C11           -0.8339    -7.5447    -0.0277 C.2     
  12 C12           -0.3803    -8.9907    -0.0341 C.3     
  13 C13            1.1056    -8.9141     0.3430 C.3     
  14 C14            1.4910    -7.4860    -0.0679 C.3     
  15 O15           -1.9902    -7.1795    -0.0144 O.2     
  16 C16            1.1451     2.1463    -0.2993 C.ar    
  17 C17            1.1171     3.5252    -0.3020 C.ar    
  18 C18           -1.2264     3.4923     0.2184 C.ar    
  19 C19           -1.2137     2.1132     0.2245 C.ar    
  20 C20           -0.0642     4.1972    -0.0412 C.ar    
  21 C21            1.3197    -9.1544     1.8362 C.3     
  22 C22            2.2791   -10.3616     1.9437 C.3     
  23 C23            3.0305   -10.3730     0.5882 C.3     
  24 C24            1.9296    -9.9541    -0.4217 C.3     
  25 H25           -2.0644    -2.8332     0.4547 H       
  26 H26            2.1249    -2.7527    -0.4973 H       
  27 H27           -1.9415    -5.3099     0.4425 H       
  28 H28           -0.9335    -9.5681     0.7066 H       
  29 H29           -0.5009    -9.4248    -1.0267 H       
  30 H30            1.9181    -7.4835    -1.0707 H       
  31 H31            2.1987    -7.0652     0.6463 H       
  32 H32            2.0678     1.6232    -0.5026 H       
  33 H33            2.0193     4.0819    -0.5078 H       
  34 H34           -2.1457     4.0234     0.4167 H       
  35 H35           -2.1215     1.5644     0.4273 H       
  36 H36           -0.0801     5.2770    -0.0447 H       
  37 H37            1.7704    -8.2752     2.2967 H       
  38 H38            0.3702    -9.3859     2.3188 H       
  39 H39            2.9795   -10.2201     2.7668 H       
  40 H40            1.7161   -11.2856     2.0755 H       
  41 H41            3.8454    -9.6492     0.5928 H       
  42 H42            3.4020   -11.3724     0.3614 H       
  43 H43            1.3108   -10.8104    -0.6900 H       
  44 H44            2.3758    -9.5097    -1.3114 H       
@<TRIPOS>BOND
   1    1    2 1
   2    1   16 ar
   3    1   19 ar
   4    2    3 3
   5    3    4 1
   6    4    5 ar
   7    4    8 ar
   8    5    9 ar
   9    5   25 1
  10    6    7 ar
  11    6   10 1
  12    6    9 ar
  13    7    8 ar
  14    8   26 1
  15    9   27 1
  16   10   11 am
  17   10   14 1
  18   11   12 1
  19   11   15 2
  20   12   13 1
  21   12   28 1
  22   12   29 1
  23   13   14 1
  24   13   21 1
  25   13   24 1
  26   14   30 1
  27   14   31 1
  28   16   17 ar
  29   16   32 1
  30   17   20 ar
  31   17   33 1
  32   18   19 ar
  33   18   20 ar
  34   18   34 1
  35   19   35 1
  36   20   36 1
  37   21   22 1
  38   21   37 1
  39   21   38 1
  40   22   23 1
  41   22   39 1
  42   22   40 1
  43   23   24 1
  44   23   41 1
  45   23   42 1
  46   24   43 1
  47   24   44 1

#	End of record

