#	Name: ASD01200311
#	Creating user name:	WinNT
#	Creation time:	15. 06. 2019 19:08

#	Modifying user name:	WinNT
#	Modification time:	15. 06. 2019 19:08

#	Program:	/corina/corina34_cracker 3.40 0067  02.08.2006

@<TRIPOS>MOLECULE
ASD01200311
  55   57    0    0    0
SMALL
NO_CHARGES


@<TRIPOS>ATOM
   1 C1            -0.0169     1.3922     0.0107 C.ar    
   2 C2             0.0018    -0.0039    -0.0058 C.ar    
   3 C3            -1.1567    -0.7209     0.0022 C.ar    
   4 C4            -2.3885    -0.0536     0.0274 C.ar    
   5 C5            -2.4138     1.3624     0.0443 C.ar    
   6 C6            -1.2123     2.0783     0.0414 C.ar    
   7 N7            -3.5544    -0.7184     0.0356 N.ar    
   8 C8            -4.6920    -0.0664     0.0589 C.ar    
   9 N9            -4.7650     1.2553     0.0754 N.ar    
  10 C10           -3.6741     2.0092     0.0692 C.ar    
  11 O11            1.1547     2.0813     0.0022 O.3     
  12 N12           -3.7639     3.3859     0.0862 N.pl3   
  13 C13           -5.0196     4.0054     0.1103 C.2     
  14 N14           -5.2409     5.2989     0.1276 N.2     
  15 N15           -6.6263     5.5047     0.1484 N.pl3   
  16 C16           -7.2287     4.2969     0.1430 C.2     
  17 C17           -6.2623     3.3513     0.1140 C.2     
  18 C18           -7.3031     6.8038     0.1723 C.3     
  19 P19           -7.6073     7.3620    -1.5362 P.3     
  20 O20           -6.3311     7.3751    -2.2856 O.2     
  21 C21            1.0698     3.5041    -0.1003 C.3     
  22 C22            0.8642     4.1044     1.2919 C.3     
  23 C23            2.3649     4.0501    -0.7050 C.3     
  24 O24           -8.6404     6.3567    -2.2533 O.3     
  25 C25           -9.9965     5.3577    -3.9864 C.3     
  26 C26           -9.0003     6.4636    -3.6321 C.3     
  27 O27           -8.2313     8.8460    -1.5129 O.3     
  28 C28           -9.0754    10.9620    -2.3194 C.3     
  29 C29           -8.4844     9.6025    -2.6984 C.3     
  30 H30            0.9487    -0.5231    -0.0256 H       
  31 H31           -1.1257    -1.8004    -0.0112 H       
  32 H32           -1.2210     3.1582     0.0542 H       
  33 H33           -5.6111    -0.6335     0.0645 H       
  34 H34           -2.9573     3.9247     0.0814 H       
  35 H35           -8.2936     4.1174     0.1556 H       
  36 H36           -6.4184     2.2827     0.1027 H       
  37 H37           -8.2531     6.7089     0.6982 H       
  38 H38           -6.6747     7.5314     0.6858 H       
  39 H39            0.2288     3.7728    -0.7396 H       
  40 H40            1.7052     3.8357     1.9312 H       
  41 H41            0.7995     5.1897     1.2137 H       
  42 H42           -0.0584     3.7155     1.7227 H       
  43 H43            2.5113     3.6224    -1.6968 H       
  44 H44            2.3001     5.1353    -0.7832 H       
  45 H45            3.2059     3.7814    -0.0657 H       
  46 H46          -10.2710     5.4393    -5.0381 H       
  47 H47           -9.5393     4.3850    -3.8047 H       
  48 H48          -10.8887     5.4609    -3.3689 H       
  49 H49           -9.4575     7.4363    -3.8139 H       
  50 H50           -8.1081     6.3604    -4.2496 H       
  51 H51          -10.0090    10.8137    -1.7767 H       
  52 H52           -8.3697    11.5016    -1.6878 H       
  53 H53           -9.2685    11.5391    -3.2237 H       
  54 H54           -7.5509     9.7508    -3.2412 H       
  55 H55           -9.1901     9.0629    -3.3300 H       
@<TRIPOS>BOND
   1    1    2 ar
   2    1   11 1
   3    1    6 ar
   4    2    3 ar
   5    2   30 1
   6    3    4 ar
   7    3   31 1
   8    4    5 ar
   9    4    7 ar
  10    5    6 ar
  11    5   10 ar
  12    6   32 1
  13    7    8 ar
  14    8    9 ar
  15    8   33 1
  16    9   10 ar
  17   10   12 1
  18   11   21 1
  19   12   13 1
  20   12   34 1
  21   13   14 2
  22   13   17 1
  23   14   15 1
  24   15   16 1
  25   15   18 1
  26   16   17 2
  27   16   35 1
  28   17   36 1
  29   18   19 1
  30   18   37 1
  31   18   38 1
  32   19   20 2
  33   19   24 1
  34   19   27 1
  35   21   22 1
  36   21   23 1
  37   21   39 1
  38   22   40 1
  39   22   41 1
  40   22   42 1
  41   23   43 1
  42   23   44 1
  43   23   45 1
  44   24   26 1
  45   25   26 1
  46   25   46 1
  47   25   47 1
  48   25   48 1
  49   26   49 1
  50   26   50 1
  51   27   29 1
  52   28   29 1
  53   28   51 1
  54   28   52 1
  55   28   53 1
  56   29   54 1
  57   29   55 1

#	End of record

