#	Name: ASD01230818
#	Creating user name:	WinNT
#	Creation time:	15. 06. 2019 19:15

#	Modifying user name:	WinNT
#	Modification time:	15. 06. 2019 19:15

#	Program:	/corina/corina34_cracker 3.40 0067  02.08.2006

@<TRIPOS>MOLECULE
ASD01230818
  33   35    0    0    0
SMALL
NO_CHARGES


@<TRIPOS>ATOM
   1 C1            -0.0166     1.3739     0.0096 C.2     
   2 C2             0.0021    -0.0041     0.0020 C.2     
   3 C3            -1.2144    -0.7000     0.0078 C.2     
   4 C4            -2.3849    -0.0391     0.0099 C.2     
   5 N5            -2.4623     1.3311     0.0007 N.pl3   
   6 C6            -1.3175     2.0759     0.0320 C.2     
   7 C7            -3.8099     1.9042    -0.0494 C.3     
   8 C8            -3.8783     3.1898     0.7801 C.3     
   9 S9            -2.6223     4.3260     0.1123 S.o2    
  10 N10           -1.2621     3.3846     0.0822 N.am    
  11 C11            1.2496     2.1411     0.0016 C.ar    
  12 O12           -2.8871     4.6254    -1.2514 O.2     
  13 O13           -2.3216     5.3519     1.0484 O.2     
  14 C14            2.1024     2.0737    -1.1008 C.ar    
  15 C15            3.2808     2.7906    -1.1027 C.ar    
  16 C16            3.6181     3.5762    -0.0132 C.ar    
  17 C17            2.7759     3.6469     1.0833 C.ar    
  18 C18            1.5919     2.9386     1.0938 C.ar    
  19 Cl19           5.1031     4.4754    -0.0223 Cl      
  20 C20            4.2031     2.7185    -2.2923 C.3     
  21 F21            3.6530     1.8686    -3.2579 F       
  22 F22            4.3653     3.9977    -2.8349 F       
  23 F23            5.4471     2.2220    -1.8884 F       
  24 H24            0.9399    -0.5395    -0.0086 H       
  25 H25           -1.2113    -1.7800     0.0101 H       
  26 H26           -3.3018    -0.6096     0.0189 H       
  27 H27           -4.0664     2.1301    -1.0844 H       
  28 H28           -4.5230     1.1817     0.3477 H       
  29 H29           -4.8684     3.6369     0.6913 H       
  30 H30           -3.6617     2.9694     1.8253 H       
  31 H31            1.8404     1.4611    -1.9507 H       
  32 H32            3.0440     4.2612     1.9301 H       
  33 H33            0.9354     2.9948     1.9495 H       
@<TRIPOS>BOND
   1    1    2 2
   2    1   11 1
   3    1    6 1
   4    2    3 1
   5    2   24 1
   6    3    4 2
   7    3   25 1
   8    4    5 1
   9    4   26 1
  10    5    6 1
  11    5    7 1
  12    6   10 2
  13    7    8 1
  14    7   27 1
  15    7   28 1
  16    8    9 1
  17    8   29 1
  18    8   30 1
  19    9   10 am
  20    9   12 2
  21    9   13 2
  22   11   14 ar
  23   11   18 ar
  24   14   15 ar
  25   14   31 1
  26   15   16 ar
  27   15   20 1
  28   16   17 ar
  29   16   19 1
  30   17   18 ar
  31   17   32 1
  32   18   33 1
  33   20   21 1
  34   20   22 1
  35   20   23 1

#	End of record

