#	Name: ASD01881586
#	Creating user name:	WinNT
#	Creation time:	15. 06. 2019 19:42

#	Modifying user name:	WinNT
#	Modification time:	15. 06. 2019 19:42

#	Program:	/corina/corina34_cracker 3.40 0067  02.08.2006

@<TRIPOS>MOLECULE
ASD01881586
  52   53    0    0    0
SMALL
NO_CHARGES


@<TRIPOS>ATOM
   1 C1             3.7155     4.4182     1.1916 C.3     
   2 C2             4.3492     5.3780     2.2006 C.3     
   3 S3             1.9372     4.7555     1.0707 S.o2    
   4 O4             1.2508     4.2208     2.1942 O.2     
   5 O5             1.7110     6.0911     0.6416 O.2     
   6 N6             1.4258     3.8258    -0.2007 N.am    
   7 C7             1.0709     2.4209     0.0153 C.3     
   8 C8            -1.2660     2.1123    -0.8421 C.ar    
   9 C9            -0.4162     2.3059     0.2308 C.ar    
  10 C10           -0.9492     2.3923     1.5076 C.ar    
  11 C11           -2.3231     2.2804     1.6582 C.ar    
  12 C12           -3.1098     2.0877     0.5386 C.ar    
  13 N13           -2.5681     2.0107    -0.6614 N.ar    
  14 C14            1.3326     4.3821    -1.4812 C.ar    
  15 C15            0.4867     5.4592    -1.7108 C.ar    
  16 C16            0.3952     6.0076    -2.9749 C.ar    
  17 C17            1.1481     5.4828    -4.0153 C.ar    
  18 C18            1.9934     4.4068    -3.7866 C.ar    
  19 C19            2.0902     3.8609    -2.5218 C.ar    
  20 O20            1.0572     6.0231    -5.2598 O.3     
  21 C21            1.5371     7.2816    -5.4459 C.ar    
  22 C22            1.3456     7.9283    -6.6639 C.ar    
  23 C23            1.8365     9.2103    -6.8485 C.ar    
  24 C24            2.5152     9.8450    -5.8243 C.ar    
  25 C25            2.7058     9.2029    -4.6153 C.ar    
  26 C26            2.2130     7.9255    -4.4220 C.ar    
  27 O27            0.6784     7.3026    -7.6702 O.3     
  28 C28            0.5194     8.0267    -8.8918 C.3     
  29 F29            3.7540     5.1969     3.4537 F       
  30 F30            5.7206     5.1179     2.2938 F       
  31 F31            4.1523     6.6967     1.7771 F       
  32 H32            4.1792     4.5593     0.2153 H       
  33 H33            3.8689     3.3908     1.5216 H       
  34 H34            1.3578     1.8353    -0.8581 H       
  35 H35            1.5955     2.0445     0.8935 H       
  36 H36           -0.8591     2.0484    -1.8405 H       
  37 H37           -0.3095     2.5429     2.3646 H       
  38 H38           -2.7727     2.3426     2.6382 H       
  39 H39           -4.1807     1.9996     0.6474 H       
  40 H40           -0.0998     5.8676    -0.9011 H       
  41 H41           -0.2629     6.8451    -3.1537 H       
  42 H42            2.5793     3.9988    -4.5970 H       
  43 H43            2.7519     3.0263    -2.3429 H       
  44 H44            1.6896     9.7141    -7.7924 H       
  45 H45            2.8974    10.8446    -5.9696 H       
  46 H46            3.2366     9.7019    -3.8180 H       
  47 H47            2.3589     7.4280    -3.4746 H       
  48 H48           -0.0347     8.9456    -8.7000 H       
  49 H49            1.5003     8.2722    -9.2989 H       
  50 H50           -0.0286     7.4148    -9.6082 H       
  51 Cl51          10.7206    15.8446     8.4537 Cl      
  52 H52           10.7206    17.2146     8.4537 H       
@<TRIPOS>BOND
   1    1    2 1
   2    1    3 1
   3    1   32 1
   4    1   33 1
   5    2   29 1
   6    2   30 1
   7    2   31 1
   8    3    4 2
   9    3    5 2
  10    3    6 am
  11    6    7 1
  12    6   14 1
  13    7    9 1
  14    7   34 1
  15    7   35 1
  16    8    9 ar
  17    8   13 ar
  18    8   36 1
  19    9   10 ar
  20   10   11 ar
  21   10   37 1
  22   11   12 ar
  23   11   38 1
  24   12   13 ar
  25   12   39 1
  26   14   15 ar
  27   14   19 ar
  28   15   16 ar
  29   15   40 1
  30   16   17 ar
  31   16   41 1
  32   17   18 ar
  33   17   20 1
  34   18   19 ar
  35   18   42 1
  36   19   43 1
  37   20   21 1
  38   21   22 ar
  39   21   26 ar
  40   22   23 ar
  41   22   27 1
  42   23   24 ar
  43   23   44 1
  44   24   25 ar
  45   24   45 1
  46   25   26 ar
  47   25   46 1
  48   26   47 1
  49   27   28 1
  50   28   48 1
  51   28   49 1
  52   28   50 1
  53   51   52 1

#	End of record

