#	Name: ASD02508416
#	Creating user name:	WinNT
#	Creation time:	15. 06. 2019 20:24

#	Modifying user name:	WinNT
#	Modification time:	15. 06. 2019 20:24

#	Program:	/corina/corina34_cracker 3.40 0067  02.08.2006

@<TRIPOS>MOLECULE
ASD02508416
  42   45    0    0    0
SMALL
NO_CHARGES


@<TRIPOS>ATOM
   1 N1            -0.0161     1.3373     0.0094 N.2     
   2 C2             0.0021    -0.0041     0.0020 C.2     
   3 C3             1.2863    -0.4075    -0.0124 C.2     
   4 N4             2.0587     0.7262    -0.0137 N.pl3   
   5 C5             1.2088     1.7868     0.0001 C.2     
   6 C6             3.4559     0.7804    -0.0263 C.ar    
   7 C7             4.0968     2.0131    -0.0259 C.ar    
   8 N8             4.1551    -0.3427    -0.0331 N.ar    
   9 C9             5.4741    -0.3368    -0.0446 C.ar    
  10 C10            6.1768     0.8522    -0.0496 C.ar    
  11 C11            5.4803     2.0527    -0.0380 C.ar    
  12 S12            1.8641    -2.0720    -0.0260 S.o2    
  13 O13            1.8382    -2.4947    -1.3824 O.2     
  14 O14            3.0390    -2.0954     0.7731 O.2     
  15 N15            0.7382    -2.9883     0.7709 N.am    
  16 C16           -0.5488    -3.1321     0.2410 C.ar    
  17 C17           -0.7175    -3.3981    -1.1110 C.ar    
  18 C18           -1.9885    -3.5393    -1.6348 C.ar    
  19 C19           -3.0984    -3.4153    -0.8131 C.ar    
  20 C20           -2.9326    -3.1518     0.5418 C.ar    
  21 C21           -1.6575    -3.0147     1.0680 C.ar    
  22 O22           -4.0099    -3.0343     1.3654 O.3     
  23 O23           -4.3437    -3.5495    -1.3491 O.3     
  24 C24           -5.4165    -3.7899    -0.4321 C.3     
  25 C25           -5.2772    -2.8079     0.7390 C.3     
  26 C26            7.6837     0.8462    -0.0618 C.3     
  27 F27            8.1448    -0.4747    -0.0663 F       
  28 F28            8.1434     1.5045    -1.2075 F       
  29 F29            8.1619     1.5031     1.0770 F       
  30 H30           -0.8642    -0.6491     0.0074 H       
  31 H31            1.4987     2.8272     0.0029 H       
  32 H32            3.5231     2.9281    -0.0166 H       
  33 H33            6.0114    -1.2736    -0.0498 H       
  34 H34            6.0058     2.9962    -0.0420 H       
  35 H35            0.9709    -3.4252     1.6051 H       
  36 H36            0.1449    -3.4943    -1.7539 H       
  37 H37           -2.1176    -3.7464    -2.6869 H       
  38 H38           -1.5269    -2.8084     2.1200 H       
  39 H39           -6.3712    -3.6309    -0.9335 H       
  40 H40           -5.3612    -4.8136    -0.0619 H       
  41 H41           -6.0784    -2.9776     1.4583 H       
  42 H42           -5.3263    -1.7841     0.3681 H       
@<TRIPOS>BOND
   1    1    2 1
   2    1    5 2
   3    2    3 2
   4    2   30 1
   5    3    4 1
   6    3   12 1
   7    4    5 1
   8    4    6 1
   9    5   31 1
  10    6    7 ar
  11    6    8 ar
  12    7   11 ar
  13    7   32 1
  14    8    9 ar
  15    9   10 ar
  16    9   33 1
  17   10   11 ar
  18   10   26 1
  19   11   34 1
  20   12   13 2
  21   12   14 2
  22   12   15 am
  23   15   16 1
  24   15   35 1
  25   16   17 ar
  26   16   21 ar
  27   17   18 ar
  28   17   36 1
  29   18   19 ar
  30   18   37 1
  31   19   20 ar
  32   19   23 1
  33   20   21 ar
  34   20   22 1
  35   21   38 1
  36   22   25 1
  37   23   24 1
  38   24   25 1
  39   24   39 1
  40   24   40 1
  41   25   41 1
  42   25   42 1
  43   26   27 1
  44   26   28 1
  45   26   29 1

#	End of record

