#	Name: ASD01148660
#	Creating user name:	WinNT
#	Creation time:	15. 06. 2019 19:02

#	Modifying user name:	WinNT
#	Modification time:	15. 06. 2019 19:02

#	Program:	/corina/corina34_cracker 3.40 0067  02.08.2006

@<TRIPOS>MOLECULE
ASD01148660
  49   52    0    0    0
SMALL
NO_CHARGES


@<TRIPOS>ATOM
   1 N1             0.8371     1.6622    -0.8805 N.2     
   2 N2             1.5661     0.4818    -1.0718 N.pl3   
   3 C3             0.8477    -0.5454    -0.5183 C.2     
   4 C4            -0.3059     0.0042     0.0041 C.2     
   5 C5            -0.2711     1.3756    -0.2429 C.2     
   6 C6             1.2324    -1.9642    -0.4871 C.2     
   7 O7             2.2210    -2.3397    -1.0882 O.2     
   8 N8             0.4896    -2.8487     0.2075 N.am    
   9 C9             0.7851    -4.2081     0.1435 C.ar    
  10 C10            2.0760    -4.6549     0.3999 C.ar    
  11 C11            2.3667    -6.0033     0.3364 C.ar    
  12 C12            1.3763    -6.9200     0.0174 C.ar    
  13 C13            0.0904    -6.4941    -0.2403 C.ar    
  14 C14           -0.2197    -5.1334    -0.1741 C.ar    
  15 C15           -1.5949    -4.6722    -0.4423 C.2     
  16 N16           -2.5797    -5.5701    -0.6435 N.am    
  17 O17           -1.8401    -3.4819    -0.4819 O.2     
  18 C18           -3.9455    -5.1120    -0.9099 C.3     
  19 C19           -4.1041    -4.8226    -2.4038 C.3     
  20 C20           -4.9384    -6.1987    -0.4926 C.3     
  21 C21           -6.4275    -5.9096    -0.6925 C.3     
  22 C22           -5.7137    -6.9111    -1.6027 C.3     
  23 Cl23           1.7574    -8.6120    -0.0585 Cl      
  24 Cl24           3.3243    -3.5166     0.7997 Cl      
  25 C25            2.8028     0.3713    -1.7121 C.ar    
  26 C26            3.3470     1.4780    -2.3554 C.ar    
  27 C27            4.5740     1.3541    -2.9862 C.ar    
  28 C28            5.2150     0.1237    -2.9508 C.ar    
  29 C29            4.6152    -0.9326    -2.2928 C.ar    
  30 N30            3.4484    -0.7835    -1.6963 N.ar    
  31 Cl31           2.4999     2.9932    -2.3682 Cl      
  32 Br32          -1.6043     2.6187     0.2602 Br      
  33 H33           -1.0938    -0.5320     0.5121 H       
  34 H34           -0.2508    -2.5384     0.7519 H       
  35 H35            3.3712    -6.3460     0.5360 H       
  36 H36           -0.6772    -7.2120    -0.4890 H       
  37 H37           -2.3841    -6.5196    -0.6119 H       
  38 H38           -4.1413    -4.2031    -0.3409 H       
  39 H39           -5.1203    -4.4818    -2.6020 H       
  40 H40           -3.3968    -4.0484    -2.7011 H       
  41 H41           -3.9083    -5.7315    -2.9728 H       
  42 H42           -4.6526    -6.7869     0.3794 H       
  43 H43           -7.1213    -6.3079     0.0477 H       
  44 H44           -6.6997    -4.9451    -1.1213 H       
  45 H45           -5.5164    -6.6056    -2.6302 H       
  46 H46           -5.9380    -7.9684    -1.4612 H       
  47 H47            5.0215     2.1956    -3.4942 H       
  48 H48            6.1725    -0.0068    -3.4328 H       
  49 H49            5.1103    -1.8919    -2.2627 H       
@<TRIPOS>BOND
   1    1    2 1
   2    1    5 2
   3    2    3 1
   4    2   25 1
   5    3    4 2
   6    3    6 1
   7    4    5 1
   8    4   33 1
   9    5   32 1
  10    6    7 2
  11    6    8 am
  12    8    9 1
  13    8   34 1
  14    9   10 ar
  15    9   14 ar
  16   10   11 ar
  17   10   24 1
  18   11   12 ar
  19   11   35 1
  20   12   13 ar
  21   12   23 1
  22   13   14 ar
  23   13   36 1
  24   14   15 1
  25   15   16 am
  26   15   17 2
  27   16   18 1
  28   16   37 1
  29   18   19 1
  30   18   20 1
  31   18   38 1
  32   19   39 1
  33   19   40 1
  34   19   41 1
  35   20   21 1
  36   20   22 1
  37   20   42 1
  38   21   22 1
  39   21   43 1
  40   21   44 1
  41   22   45 1
  42   22   46 1
  43   25   26 ar
  44   25   30 ar
  45   26   27 ar
  46   26   31 1
  47   27   28 ar
  48   27   47 1
  49   28   29 ar
  50   28   48 1
  51   29   30 ar
  52   29   49 1

#	End of record

