#	Name: ASD02038526
#	Creating user name:	WinNT
#	Creation time:	15. 06. 2019 20:16

#	Modifying user name:	WinNT
#	Modification time:	15. 06. 2019 20:16

#	Program:	/corina/corina34_cracker 3.40 0067  02.08.2006

@<TRIPOS>MOLECULE
ASD02038526
  53   56    0    0    0
SMALL
NO_CHARGES


@<TRIPOS>ATOM
   1 C1            -0.0184     1.5028     0.0103 C.3     
   2 C2             1.0911    -6.2058     0.8590 C.3     
   3 N3             0.9329    -6.7711    -0.4896 N.am    
   4 C4             1.7226    -7.7771    -0.9150 C.2     
   5 C5             1.5432    -8.3414    -2.3007 C.3     
   6 O6             2.4906    -9.3897    -2.5145 O.3     
   7 C7             2.4629   -10.0095    -3.7244 C.ar    
   8 C8             3.3552   -11.0356    -3.9982 C.ar    
   9 C9            -0.1103    -6.2099    -1.3614 C.3     
  10 C10            0.0512    -4.6864    -1.3951 C.3     
  11 N11            0.0577    -4.1674    -0.0209 N.3     
  12 C12            0.0387    -2.7708    -0.0132 C.ar    
  13 C13            0.0412    -2.0812     1.1927 C.ar    
  14 C14            0.0229    -0.7003     1.1966 C.ar    
  15 C15            0.0021    -0.0041     0.0020 C.ar    
  16 C16           -0.0005    -0.6874    -1.2002 C.ar    
  17 C17            0.0231    -2.0682    -1.2114 C.ar    
  18 C18            1.2053    -4.6825     0.7379 C.3     
  19 O19            2.5775    -8.2281    -0.1825 O.2     
  20 C20            3.3269   -11.6652    -5.2267 C.ar    
  21 C21            2.4056   -11.2717    -6.1880 C.ar    
  22 C22            1.5135   -10.2437    -5.9137 C.ar    
  23 C23            1.5383    -9.6192    -4.6825 C.ar    
  24 C24            4.2940   -12.7807    -5.5274 C.3     
  25 C25            3.6191   -13.8125    -6.4318 C.3     
  26 C26            2.9521   -13.1202    -7.5898 C.2     
  27 N27            2.3782   -11.9134    -7.4323 N.am    
  28 O28            2.9318   -13.6563    -8.6776 O.2     
  29 H29            1.0042     1.8801     0.0026 H       
  30 H30           -0.5455     1.8639    -0.8728 H       
  31 H31           -0.5286     1.8543     0.9071 H       
  32 H32            0.2231    -6.4607     1.4670 H       
  33 H33            1.9945    -6.6052     1.3198 H       
  34 H34            0.5331    -8.7380    -2.4036 H       
  35 H35            1.7008    -7.5534    -3.0372 H       
  36 H36            4.0722   -11.3417    -3.2508 H       
  37 H37           -0.0011    -6.6120    -2.3686 H       
  38 H38           -1.0937    -6.4652    -0.9668 H       
  39 H39            0.9909    -4.4310    -1.8848 H       
  40 H40           -0.7787    -4.2448    -1.9468 H       
  41 H41            0.0571    -2.6243     2.1260 H       
  42 H42            0.0244    -0.1635     2.1338 H       
  43 H43           -0.0167    -0.1406    -2.1314 H       
  44 H44            0.0215    -2.6013    -2.1507 H       
  45 H45            1.2123    -4.2380     1.7331 H       
  46 H46            2.1289    -4.4271     0.2185 H       
  47 H47            0.7970    -9.9364    -6.6610 H       
  48 H48            0.8443    -8.8198    -4.4686 H       
  49 H49            5.1713   -12.3749    -6.0311 H       
  50 H50            4.5986   -13.2582    -4.5960 H       
  51 H51            4.3683   -14.5086    -6.8089 H       
  52 H52            2.8717   -14.3619    -5.8593 H       
  53 H53            1.9428   -11.4849    -8.1858 H       
@<TRIPOS>BOND
   1    1   15 1
   2    1   29 1
   3    1   30 1
   4    1   31 1
   5    2    3 1
   6    2   18 1
   7    2   32 1
   8    2   33 1
   9    3    4 am
  10    3    9 1
  11    4    5 1
  12    4   19 2
  13    5    6 1
  14    5   34 1
  15    5   35 1
  16    6    7 1
  17    7    8 ar
  18    7   23 ar
  19    8   20 ar
  20    8   36 1
  21    9   10 1
  22    9   37 1
  23    9   38 1
  24   10   11 1
  25   10   39 1
  26   10   40 1
  27   11   12 1
  28   11   18 1
  29   12   13 ar
  30   12   17 ar
  31   13   14 ar
  32   13   41 1
  33   14   15 ar
  34   14   42 1
  35   15   16 ar
  36   16   17 ar
  37   16   43 1
  38   17   44 1
  39   18   45 1
  40   18   46 1
  41   20   21 ar
  42   20   24 1
  43   21   22 ar
  44   21   27 1
  45   22   23 ar
  46   22   47 1
  47   23   48 1
  48   24   25 1
  49   24   49 1
  50   24   50 1
  51   25   26 1
  52   25   51 1
  53   25   52 1
  54   26   27 am
  55   26   28 2
  56   27   53 1

#	End of record

