#	Name: ASD01882431
#	Creating user name:	WinNT
#	Creation time:	15. 06. 2019 19:44

#	Modifying user name:	WinNT
#	Modification time:	15. 06. 2019 19:44

#	Program:	/corina/corina34_cracker 3.40 0067  02.08.2006

@<TRIPOS>MOLECULE
ASD01882431
  54   59    0    0    0
SMALL
NO_CHARGES


@<TRIPOS>ATOM
   1 C1            -0.0169     1.3357     0.0266 C.2     
   2 N2            -0.0054     0.0030     0.1570 N.am    
   3 C3             1.4420    -0.0619     0.3185 C.3     
   4 C4             1.4684     1.4518     0.1747 C.3     
   5 C5             2.1838     1.9463    -1.0827 C.3     
   6 C6             1.9253     3.4483    -1.2486 C.3     
   7 N7             2.2817     4.1305     0.0024 N.pl3   
   8 C8             1.6568     3.6910     1.2569 C.3     
   9 C9             1.9136     2.1904     1.4371 C.3     
  10 O10           -0.9012     2.1467    -0.1508 O.2     
  11 C11           -1.0135    -0.9706     0.1438 C.ar    
  12 C12           -1.6415    -1.3390     1.3287 C.ar    
  13 C13           -2.6356    -2.2998     1.3124 C.ar    
  14 C14           -3.0048    -2.8946     0.1174 C.ar    
  15 C15           -2.3799    -2.5289    -1.0625 C.ar    
  16 C16           -1.3904    -1.5643    -1.0522 C.ar    
  17 F17           -3.9761    -3.8336     0.1032 F       
  18 F18           -1.2803    -0.7591     2.4943 F       
  19 C19            3.8589     7.3826    -0.6583 C.2     
  20 C20            2.9172     6.3388    -0.6706 C.2     
  21 C21            3.1991     5.1785    -0.0008 C.2     
  22 C22            4.4252     5.0515     0.6870 C.2     
  23 C23            5.3135     6.0647     0.6852 C.2     
  24 N24            5.0424     7.2256     0.0211 N.pl3   
  25 N25            4.9888     9.1763    -0.8911 N.2     
  26 N26            3.8846     8.5917    -1.1984 N.2     
  27 C27            5.7287     8.3913    -0.1530 C.2     
  28 C28            7.0920     8.7143     0.4020 C.3     
  29 C29            8.1654     8.2856    -0.6004 C.3     
  30 C30            9.6183     8.6356    -0.2727 C.3     
  31 C31            9.1380     7.1868    -0.1673 C.3     
  32 Cl32           1.4159     6.5191    -1.5233 Cl      
  33 H33            1.7541    -0.4103     1.3030 H       
  34 H34            1.9468    -0.5844    -0.4941 H       
  35 H35            3.2550     1.7694    -0.9860 H       
  36 H36            1.8021     1.4125    -1.9530 H       
  37 H37            2.5366     3.8364    -2.0634 H       
  38 H38            0.8709     3.6154    -1.4685 H       
  39 H39            2.0912     4.2390     2.0931 H       
  40 H40            0.5834     3.8755     1.2147 H       
  41 H41            1.3468     1.8238     2.2929 H       
  42 H42            2.9774     2.0200     1.6031 H       
  43 H43           -3.1241    -2.5868     2.2318 H       
  44 H44           -2.6693    -2.9948    -1.9929 H       
  45 H45           -0.9073    -1.2762    -1.9742 H       
  46 H46            4.6521     4.1384     1.2173 H       
  47 H47            6.2487     5.9571     1.2146 H       
  48 H48            7.1676     9.7872     0.5786 H       
  49 H49            7.2378     8.1804     1.3410 H       
  50 H50            7.8662     8.3089    -1.6483 H       
  51 H51           10.2750     8.8889    -1.1049 H       
  52 H52            9.8094     9.1714     0.6571 H       
  53 H53            9.0132     6.7694     0.8319 H       
  54 H54            9.4788     6.4869    -0.9302 H       
@<TRIPOS>BOND
   1    1    2 am
   2    1    4 1
   3    1   10 2
   4    2    3 1
   5    2   11 1
   6    3    4 1
   7    3   33 1
   8    3   34 1
   9    4    5 1
  10    4    9 1
  11    5    6 1
  12    5   35 1
  13    5   36 1
  14    6    7 1
  15    6   37 1
  16    6   38 1
  17    7    8 1
  18    7   21 1
  19    8    9 1
  20    8   39 1
  21    8   40 1
  22    9   41 1
  23    9   42 1
  24   11   12 ar
  25   11   16 ar
  26   12   13 ar
  27   12   18 1
  28   13   14 ar
  29   13   43 1
  30   14   15 ar
  31   14   17 1
  32   15   16 ar
  33   15   44 1
  34   16   45 1
  35   19   20 1
  36   19   24 1
  37   19   26 2
  38   20   21 2
  39   20   32 1
  40   21   22 1
  41   22   23 2
  42   22   46 1
  43   23   24 1
  44   23   47 1
  45   24   27 1
  46   25   26 1
  47   25   27 2
  48   27   28 1
  49   28   29 1
  50   28   48 1
  51   28   49 1
  52   29   30 1
  53   29   31 1
  54   29   50 1
  55   30   31 1
  56   30   51 1
  57   30   52 1
  58   31   53 1
  59   31   54 1

#	End of record

