#	Name: ASD01510029
#	Creating user name:	WinNT
#	Creation time:	15. 06. 2019 19:21

#	Modifying user name:	WinNT
#	Modification time:	15. 06. 2019 19:21

#	Program:	/corina/corina34_cracker 3.40 0067  02.08.2006

@<TRIPOS>MOLECULE
ASD01510029
  73   76    0    0    0
SMALL
NO_CHARGES


@<TRIPOS>ATOM
   1 C1            -0.0187     1.5258     0.0104 C.3     
   2 C2             0.0021    -0.0041     0.0020 C.3     
   3 O3             0.6709    -0.4649    -1.1737 O.3     
   4 C4             0.7765    -1.8073    -1.3358 C.ar    
   5 N5             0.2728    -2.6372    -0.4285 N.ar    
   6 C6             0.3716    -3.9491    -0.5792 C.ar    
   7 N7             0.9708    -4.4879    -1.6300 N.ar    
   8 C8             1.4991    -3.7230    -2.5795 C.ar    
   9 C9             1.4104    -2.3361    -2.4601 C.ar    
  10 S10            2.0943    -1.2783    -3.6922 S.3     
  11 C11            0.7043    -1.1173    -4.7630 C.ar    
  12 N12            0.8123    -0.3714    -5.8531 N.ar    
  13 C13           -0.2166    -0.2274    -6.6849 C.ar    
  14 N14           -0.0952     0.5543    -7.8233 N.pl3   
  15 C15           -1.4160    -0.8724    -6.3971 C.ar    
  16 C16           -1.4917    -1.6473    -5.2432 C.ar    
  17 N17           -0.4204    -1.7497    -4.4603 N.ar    
  18 N18           -2.6659    -2.3078    -4.9166 N.pl3   
  19 O19            2.1111    -4.2831    -3.6525 O.3     
  20 C20            2.1545    -5.7105    -3.7027 C.3     
  21 C21            2.8782    -6.1543    -4.9756 C.3     
  22 N22           -0.1666    -4.7814     0.3901 N.pl3   
  23 C23           -0.0685    -6.2357     0.2434 C.3     
  24 C24            1.2025    -6.7214     0.8914 C.ar    
  25 C25            1.2011    -7.0876     2.2247 C.ar    
  26 C26            2.3649    -7.5331     2.8210 C.ar    
  27 C27            3.5356    -7.6128     2.0809 C.ar    
  28 C28            3.5344    -7.2447     0.7433 C.ar    
  29 C29            2.3667    -6.8052     0.1502 C.ar    
  30 O30            4.6819    -8.0503     2.6654 O.3     
  31 C31            5.8490    -8.1065     1.8428 C.3     
  32 C32           -0.8334    -4.2066     1.5610 C.3     
  33 C33           -2.2994    -4.0225     1.2643 C.ar    
  34 C34           -3.1930    -5.0402     1.5428 C.ar    
  35 C35           -4.5374    -4.8740     1.2717 C.ar    
  36 C36           -4.9906    -3.6847     0.7195 C.ar    
  37 C37           -4.0919    -2.6651     0.4410 C.ar    
  38 C38           -2.7494    -2.8342     0.7192 C.ar    
  39 O39           -6.3125    -3.5189     0.4515 O.3     
  40 C40           -6.7074    -2.2685    -0.1166 C.3     
  41 H41            1.0039     1.9031     0.0027 H       
  42 H42           -0.5459     1.8868    -0.8726 H       
  43 H43           -0.5289     1.8773     0.9072 H       
  44 H44            0.5293    -0.3651     0.8851 H       
  45 H45           -1.0205    -0.3814     0.0098 H       
  46 H46            0.7437     1.0008    -8.0178 H       
  47 H47           -0.8491     0.6549    -8.4252 H       
  48 H48           -2.2680    -0.7738    -7.0535 H       
  49 H49           -3.4418    -2.2317    -5.4938 H       
  50 H50           -2.7116    -2.8460    -4.1110 H       
  51 H51            2.6882    -6.0887    -2.8308 H       
  52 H52            1.1384    -6.1050    -3.7062 H       
  53 H53            2.3446    -5.7761    -5.8476 H       
  54 H54            3.8943    -5.7598    -4.9722 H       
  55 H55            2.9113    -7.2431    -5.0139 H       
  56 H56           -0.9250    -6.7080     0.7245 H       
  57 H57           -0.0582    -6.4943    -0.8154 H       
  58 H58            0.2896    -7.0251     2.8005 H       
  59 H59            2.3634    -7.8188     3.8625 H       
  60 H60            4.4445    -7.3059     0.1651 H       
  61 H61            2.3651    -6.5186    -0.8911 H       
  62 H62            6.6909    -8.4715     2.4311 H       
  63 H63            5.6712    -8.7813     1.0054 H       
  64 H64            6.0752    -7.1096     1.4644 H       
  65 H65           -0.7164    -4.8779     2.4118 H       
  66 H66           -0.3863    -3.2407     1.7961 H       
  67 H67           -2.8397    -5.9660     1.9723 H       
  68 H68           -5.2349    -5.6693     1.4890 H       
  69 H69           -4.4423    -1.7383     0.0112 H       
  70 H70           -2.0494    -2.0408     0.5026 H       
  71 H71           -6.4432    -1.4601     0.5650 H       
  72 H72           -6.1953    -2.1238    -1.0679 H       
  73 H73           -7.7851    -2.2681    -0.2804 H       
@<TRIPOS>BOND
   1    1    2 1
   2    1   41 1
   3    1   42 1
   4    1   43 1
   5    2    3 1
   6    2   44 1
   7    2   45 1
   8    3    4 1
   9    4    5 ar
  10    4    9 ar
  11    5    6 ar
  12    6    7 ar
  13    6   22 1
  14    7    8 ar
  15    8    9 ar
  16    8   19 1
  17    9   10 1
  18   10   11 1
  19   11   12 ar
  20   11   17 ar
  21   12   13 ar
  22   13   14 1
  23   13   15 ar
  24   14   46 1
  25   14   47 1
  26   15   16 ar
  27   15   48 1
  28   16   17 ar
  29   16   18 1
  30   18   49 1
  31   18   50 1
  32   19   20 1
  33   20   21 1
  34   20   51 1
  35   20   52 1
  36   21   53 1
  37   21   54 1
  38   21   55 1
  39   22   23 1
  40   22   32 1
  41   23   24 1
  42   23   56 1
  43   23   57 1
  44   24   25 ar
  45   24   29 ar
  46   25   26 ar
  47   25   58 1
  48   26   27 ar
  49   26   59 1
  50   27   28 ar
  51   27   30 1
  52   28   29 ar
  53   28   60 1
  54   29   61 1
  55   30   31 1
  56   31   62 1
  57   31   63 1
  58   31   64 1
  59   32   33 1
  60   32   65 1
  61   32   66 1
  62   33   34 ar
  63   33   38 ar
  64   34   35 ar
  65   34   67 1
  66   35   36 ar
  67   35   68 1
  68   36   37 ar
  69   36   39 1
  70   37   38 ar
  71   37   69 1
  72   38   70 1
  73   39   40 1
  74   40   71 1
  75   40   72 1
  76   40   73 1

#	End of record

