#	Name: ASD02030469
#	Creating user name:	WinNT
#	Creation time:	15. 06. 2019 20:15

#	Modifying user name:	WinNT
#	Modification time:	15. 06. 2019 20:15

#	Program:	/corina/corina34_cracker 3.40 0067  02.08.2006

@<TRIPOS>MOLECULE
ASD02030469
  57   58    0    0    0
SMALL
NO_CHARGES


@<TRIPOS>ATOM
   1 N1             0.1834     1.1276     0.7368 N.am    
   2 C2             0.0762    -0.2548     0.2497 C.3     
   3 C3             0.7465    -0.3426    -1.1270 C.3     
   4 N4             2.0763     0.2773    -1.0423 N.am    
   5 C5             2.1835     1.6597    -0.5551 C.3     
   6 C6             1.5132     1.7475     0.8216 C.3     
   7 C7            -0.9185     1.8163     1.0942 C.2     
   8 O8            -2.0200     1.3351     0.9163 O.2     
   9 O9            -0.7989     3.0376     1.6483 O.3     
  10 C10            0.7813    -1.1992     1.2253 C.3     
  11 C11           -1.3986    -0.6436     0.1284 C.3     
  12 C12            3.1778    -0.4097    -1.4044 C.2     
  13 O13            3.1075    -1.6050    -1.6118 O.2     
  14 C14            4.4745     0.2924    -1.5497 C.ar    
  15 C15            5.6369    -0.4426    -1.7717 C.ar    
  16 C16            6.8421     0.2282    -1.9060 C.ar    
  17 C17            6.8429     1.6114    -1.8136 C.ar    
  18 C18            5.6486     2.2779    -1.5915 C.ar    
  19 N19            4.5179     1.6166    -1.4728 N.ar    
  20 C20            5.6444     3.7815    -1.4903 C.3     
  21 C21            5.9781     4.1971    -0.0561 C.3     
  22 C22            6.6904     4.3599    -2.4454 C.3     
  23 C23           -2.0281     3.7214     2.0083 C.3     
  24 C24           -2.7994     2.8811     3.0280 C.3     
  25 C25           -1.6938     5.0839     2.6187 C.3     
  26 C26           -2.8865     3.9198     0.7574 C.3     
  27 H27            0.8482    -1.3881    -1.4184 H       
  28 H28            0.1419     0.1876    -1.8628 H       
  29 H29            3.2342     1.9367    -0.4687 H       
  30 H30            1.6812     2.3325    -1.2501 H       
  31 H31            1.4116     2.7930     1.1130 H       
  32 H32            2.1178     1.2173     1.5574 H       
  33 H33            0.3129    -1.1238     2.2066 H       
  34 H34            0.7004    -2.2237     0.8618 H       
  35 H35            1.8329    -0.9231     1.3024 H       
  36 H36           -1.8975     0.0348    -0.5637 H       
  37 H37           -1.4756    -1.6648    -0.2448 H       
  38 H38           -1.8733    -0.5778     1.1074 H       
  39 H39            5.5994    -1.5199    -1.8378 H       
  40 H40            7.7599    -0.3143    -2.0784 H       
  41 H41            7.7654     2.1641    -1.9134 H       
  42 H42            4.6583     4.1609    -1.7583 H       
  43 H43            6.9642     3.8177     0.2120 H       
  44 H44            5.9751     5.2846     0.0171 H       
  45 H45            5.2330     3.7850     0.6243 H       
  46 H46            6.4526     4.0639    -3.4671 H       
  47 H47            6.6873     5.4475    -2.3722 H       
  48 H48            7.6764     3.9805    -2.1773 H       
  49 H49           -2.1879     2.7397     3.9192 H       
  50 H50           -3.7222     3.3944     3.2983 H       
  51 H51           -3.0376     1.9104     2.5931 H       
  52 H52           -1.1443     5.6826     1.8923 H       
  53 H53           -2.6166     5.5973     2.8890 H       
  54 H54           -1.0823     4.9426     3.5099 H       
  55 H55           -3.1247     2.9491     0.3225 H       
  56 H56           -3.8093     4.4332     1.0276 H       
  57 H57           -2.3370     4.5185     0.0309 H       
@<TRIPOS>BOND
   1    1    2 1
   2    1    6 1
   3    1    7 am
   4    2    3 1
   5    2   10 1
   6    2   11 1
   7    3    4 1
   8    3   27 1
   9    3   28 1
  10    4    5 1
  11    4   12 am
  12    5    6 1
  13    5   29 1
  14    5   30 1
  15    6   31 1
  16    6   32 1
  17    7    8 2
  18    7    9 1
  19    9   23 1
  20   10   33 1
  21   10   34 1
  22   10   35 1
  23   11   36 1
  24   11   37 1
  25   11   38 1
  26   12   13 2
  27   12   14 1
  28   14   15 ar
  29   14   19 ar
  30   15   16 ar
  31   15   39 1
  32   16   17 ar
  33   16   40 1
  34   17   18 ar
  35   17   41 1
  36   18   19 ar
  37   18   20 1
  38   20   21 1
  39   20   22 1
  40   20   42 1
  41   21   43 1
  42   21   44 1
  43   21   45 1
  44   22   46 1
  45   22   47 1
  46   22   48 1
  47   23   24 1
  48   23   26 1
  49   23   25 1
  50   24   49 1
  51   24   50 1
  52   24   51 1
  53   25   52 1
  54   25   53 1
  55   25   54 1
  56   26   55 1
  57   26   56 1
  58   26   57 1

#	End of record

