#	Name: ASD03540370
#	Creating user name:	WinNT
#	Creation time:	15. 06. 2019 20:43

#	Modifying user name:	WinNT
#	Modification time:	15. 06. 2019 20:43

#	Program:	/corina/corina34_cracker 3.40 0067  02.08.2006

@<TRIPOS>MOLECULE
ASD03540370
  50   53    0    0    0
SMALL
NO_CHARGES


@<TRIPOS>ATOM
   1 N1            -0.0161     1.3396     0.0094 N.am    
   2 C2             0.0021    -0.0041     0.0020 C.2     
   3 N3             1.1390    -0.7172    -0.0122 N.am    
   4 C4             2.3459    -0.1106    -0.0200 C.2     
   5 C5             2.3857     1.3633    -0.0129 C.ar    
   6 C6             3.5871     2.0607    -0.0197 C.ar    
   7 C7             3.5659     3.4548    -0.0121 C.ar    
   8 C8             2.3437     4.1382     0.0023 C.ar    
   9 C9             1.1622     3.4519     0.0094 C.ar    
  10 C10            1.1637     2.0628     0.0020 C.ar    
  11 C11            4.8337     4.2115    -0.0186 C.2     
  12 O12            5.8952     3.6190    -0.0307 O.2     
  13 N13            4.8141     5.5591    -0.0113 N.am    
  14 C14            6.0721     6.3100    -0.0178 C.3     
  15 C15            5.3731     9.8315     1.1587 C.ar    
  16 C16            5.6455     8.4769     1.1885 C.ar    
  17 C17            5.7753     7.7874    -0.0074 C.ar    
  18 C18            5.6260     8.4897    -1.1936 C.ar    
  19 C19            5.3547     9.8440    -1.1448 C.ar    
  20 N20            5.2374    10.4672     0.0114 N.ar    
  21 O21            3.3721    -0.7626    -0.0320 O.2     
  22 O22           -1.0576    -0.5997     0.0089 O.2     
  23 C23           -1.2992     2.0466     0.0193 C.3     
  24 C24            1.0697    -2.1806    -0.0189 C.3     
  25 C25            1.0327    -2.6752    -1.4420 C.ar    
  26 C26            2.2115    -2.9586    -2.1061 C.ar    
  27 C27            2.1775    -3.4122    -3.4115 C.ar    
  28 C28            0.9648    -3.5829    -4.0526 C.ar    
  29 C29           -0.2140    -3.3004    -3.3881 C.ar    
  30 C30           -0.1803    -2.8509    -2.0813 C.ar    
  31 H31            4.5271     1.5290    -0.0304 H       
  32 H32            2.3349     5.2181     0.0081 H       
  33 H33            0.2260     3.9901     0.0212 H       
  34 H34            3.9672     6.0319    -0.0017 H       
  35 H35            6.6548     6.0502     0.8660 H       
  36 H36            6.6399     6.0598    -0.9139 H       
  37 H37            5.2660    10.3749     2.0859 H       
  38 H38            5.7558     7.9619     2.1313 H       
  39 H39            5.7209     7.9849    -2.1436 H       
  40 H40            5.2370    10.3982    -2.0643 H       
  41 H41           -2.1134     1.3219     0.0192 H       
  42 H42           -1.3652     2.6671     0.9130 H       
  43 H43           -1.3736     2.6768    -0.8669 H       
  44 H44            1.9463    -2.5881     0.4847 H       
  45 H45            0.1684    -2.5041     0.5017 H       
  46 H46            3.1590    -2.8252    -1.6052 H       
  47 H47            3.0985    -3.6329    -3.9306 H       
  48 H48            0.9383    -3.9366    -5.0726 H       
  49 H49           -1.1615    -3.4334    -3.8891 H       
  50 H50           -1.1014    -2.6337    -1.5610 H       
@<TRIPOS>BOND
   1    1    2 am
   2    1   10 1
   3    1   23 1
   4    2    3 am
   5    2   22 2
   6    3    4 am
   7    3   24 1
   8    4    5 1
   9    4   21 2
  10    5    6 ar
  11    5   10 ar
  12    6    7 ar
  13    6   31 1
  14    7    8 ar
  15    7   11 1
  16    8    9 ar
  17    8   32 1
  18    9   10 ar
  19    9   33 1
  20   11   12 2
  21   11   13 am
  22   13   14 1
  23   13   34 1
  24   14   17 1
  25   14   35 1
  26   14   36 1
  27   15   16 ar
  28   15   20 ar
  29   15   37 1
  30   16   17 ar
  31   16   38 1
  32   17   18 ar
  33   18   19 ar
  34   18   39 1
  35   19   20 ar
  36   19   40 1
  37   23   41 1
  38   23   42 1
  39   23   43 1
  40   24   25 1
  41   24   44 1
  42   24   45 1
  43   25   26 ar
  44   25   30 ar
  45   26   27 ar
  46   26   46 1
  47   27   28 ar
  48   27   47 1
  49   28   29 ar
  50   28   48 1
  51   29   30 ar
  52   29   49 1
  53   30   50 1

#	End of record

