#	Name: ASD01141062
#	Creating user name:	WinNT
#	Creation time:	15. 06. 2019 19:01

#	Modifying user name:	WinNT
#	Modification time:	15. 06. 2019 19:01

#	Program:	/corina/corina34_cracker 3.40 0067  02.08.2006

@<TRIPOS>MOLECULE
ASD01141062
  48   49    0    0    0
SMALL
NO_CHARGES


@<TRIPOS>ATOM
   1 C1             0.1616     1.5487    -0.9285 C.ar    
   2 C2             0.0064     0.6135    -1.9333 C.ar    
   3 C3             1.2150     2.4644    -0.9885 C.ar    
   4 Cl4           -0.9535     1.5906     0.4014 Cl      
   5 C5             0.8910     0.5827    -2.9957 C.ar    
   6 C6             2.1036     2.4268    -2.0650 C.ar    
   7 C7             1.3879     3.4687     0.0824 C.2     
   8 C8             1.9367     1.4875    -3.0606 C.ar    
   9 C9             2.5638     4.3460     0.0825 C.2     
  10 O10            0.5548     3.5677     0.9640 O.2     
  11 C11            2.4107     5.7073    -0.1057 C.2     
  12 C12            3.9020     3.7790     0.2821 C.2     
  13 N13            3.4766     6.5275     0.0034 N.pl3   
  14 O14            4.0642     2.4422     0.3527 O.3     
  15 O15            4.8650     4.5145     0.3838 O.2     
  16 C16            3.3028     7.9124    -0.0681 C.ar    
  17 C17            4.3991     8.7582     0.0439 C.ar    
  18 C18            2.0342     8.4460    -0.2570 C.ar    
  19 C19            4.2238    10.1262    -0.0271 C.ar    
  20 C20            1.8661     9.8149    -0.3271 C.ar    
  21 C21            2.9588    10.6543    -0.2095 C.ar    
  22 H22            4.3634     6.1559     0.1313 H       
  23 C23            5.4265     1.9470     0.4376 C.3     
  24 C24            5.4176     0.4180     0.3843 C.3     
  25 C25            2.7714    12.1476    -0.2860 C.3     
  26 C26            2.1588    12.5161    -1.6388 C.3     
  27 C27            1.8378    12.6027     0.8375 C.3     
  28 H28           -0.8073    -0.0953    -1.8889 H       
  29 H29            0.7657    -0.1509    -3.7783 H       
  30 H30            2.9201     3.1318    -2.1175 H       
  31 H31            2.6238     1.4575    -3.8933 H       
  32 H32            1.4380     6.1141    -0.3398 H       
  33 H33            5.3873     8.3465     0.1868 H       
  34 H34            1.1804     7.7910    -0.3493 H       
  35 H35            5.0756    10.7844     0.0603 H       
  36 H36            0.8795    10.2306    -0.4696 H       
  37 H37            6.0074     2.3364    -0.3985 H       
  38 H38            5.8746     2.2753     1.3754 H       
  39 H39            6.4297     0.0432     0.5369 H       
  40 H40            4.7650     0.0309     1.1669 H       
  41 H41            5.0517     0.0905    -0.5888 H       
  42 H42            3.7373    12.6411    -0.1781 H       
  43 H43            1.1929    12.0227    -1.7467 H       
  44 H44            2.0232    13.5962    -1.6941 H       
  45 H45            2.8238    12.1919    -2.4392 H       
  46 H46            2.2742    12.3402     1.8012 H       
  47 H47            1.7023    13.6828     0.7822 H       
  48 H48            0.8719    12.1093     0.7296 H       
@<TRIPOS>BOND
   1    1    2 ar
   2    1    3 ar
   3    1    4 1
   4    2    5 ar
   5    2   28 1
   6    3    6 ar
   7    3    7 1
   8    5    8 ar
   9    5   29 1
  10    6    8 ar
  11    6   30 1
  12    7    9 1
  13    7   10 2
  14    8   31 1
  15    9   11 2
  16    9   12 1
  17   11   13 1
  18   11   32 1
  19   12   14 1
  20   12   15 2
  21   13   16 1
  22   13   22 1
  23   14   23 1
  24   16   17 ar
  25   16   18 ar
  26   17   19 ar
  27   17   33 1
  28   18   20 ar
  29   18   34 1
  30   19   21 ar
  31   19   35 1
  32   20   21 ar
  33   20   36 1
  34   21   25 1
  35   23   24 1
  36   23   37 1
  37   23   38 1
  38   24   39 1
  39   24   40 1
  40   24   41 1
  41   25   26 1
  42   25   27 1
  43   25   42 1
  44   26   43 1
  45   26   44 1
  46   26   45 1
  47   27   46 1
  48   27   47 1
  49   27   48 1

#	End of record

