#	Name: ASD00122078
#	Creating user name:	WinNT
#	Creation time:	15. 06. 2019 18:31

#	Modifying user name:	WinNT
#	Modification time:	15. 06. 2019 18:31

#	Program:	/corina/corina34_cracker 3.40 0067  02.08.2006

@<TRIPOS>MOLECULE
ASD00122078
  37   40    0    0    0
SMALL
NO_CHARGES


@<TRIPOS>ATOM
   1 C1            -0.0168     1.3884     0.0097 C.ar    
   2 C2             0.0021    -0.0041     0.0020 C.ar    
   3 N3            -1.1598    -0.6731     0.0094 N.ar    
   4 C4            -2.3069    -0.0348     0.0241 C.ar    
   5 N5            -2.3787     1.2840     0.0317 N.ar    
   6 C6            -1.2836     2.0305     0.0307 C.ar    
   7 C7             1.3201     1.9695     0.0000 C.2     
   8 C8             2.3010     1.0654    -0.0134 C.2     
   9 S9             1.6633    -0.5705    -0.0162 S.3     
  10 C10            1.5656     3.4728     0.0044 C.3     
  11 C11            3.0135     3.7360     0.4215 C.3     
  12 C12            3.9461     2.8729    -0.4339 C.3     
  13 C13            3.7808     1.4073    -0.0240 C.3     
  14 S14           -1.3972     3.7888     0.0414 S.3     
  15 C15           -3.1963     3.9874     0.0514 C.3     
  16 C16           -3.5396     5.4548     0.0615 C.ar    
  17 C17           -3.7029     6.1347    -1.1309 C.ar    
  18 C18           -4.0178     7.4806    -1.1216 C.ar    
  19 C19           -4.1698     8.1466     0.0802 C.ar    
  20 C20           -4.0074     7.4665     1.2727 C.ar    
  21 C21           -3.6968     6.1195     1.2633 C.ar    
  22 H22           -3.2226    -0.6074     0.0298 H       
  23 H23            1.3947     3.8736    -0.9947 H       
  24 H24            0.8889     3.9512     0.7125 H       
  25 H25            3.2507     4.7890     0.2702 H       
  26 H26            3.1422     3.4797     1.4731 H       
  27 H27            3.6878     2.9892    -1.4864 H       
  28 H28            4.9788     3.1823    -0.2735 H       
  29 H29            4.1980     1.2573     0.9718 H       
  30 H30            4.2981     0.7675    -0.7390 H       
  31 H31           -3.6182     3.5217    -0.8393 H       
  32 H32           -3.6095     3.5114     0.9406 H       
  33 H33           -3.5841     5.6144    -2.0698 H       
  34 H34           -4.1447     8.0120    -2.0532 H       
  35 H35           -4.4151     9.1984     0.0875 H       
  36 H36           -4.1258     7.9869     2.2116 H       
  37 H37           -3.5699     5.5881     2.1950 H       
@<TRIPOS>BOND
   1    1    2 ar
   2    1    7 1
   3    1    6 ar
   4    2    3 ar
   5    2    9 1
   6    3    4 ar
   7    4    5 ar
   8    4   22 1
   9    5    6 ar
  10    6   14 1
  11    7    8 2
  12    7   10 1
  13    8    9 1
  14    8   13 1
  15   10   11 1
  16   10   23 1
  17   10   24 1
  18   11   12 1
  19   11   25 1
  20   11   26 1
  21   12   13 1
  22   12   27 1
  23   12   28 1
  24   13   29 1
  25   13   30 1
  26   14   15 1
  27   15   16 1
  28   15   31 1
  29   15   32 1
  30   16   17 ar
  31   16   21 ar
  32   17   18 ar
  33   17   33 1
  34   18   19 ar
  35   18   34 1
  36   19   20 ar
  37   19   35 1
  38   20   21 ar
  39   20   36 1
  40   21   37 1

#	End of record

