#	Name: ASD03090783
#	Creating user name:	WinNT
#	Creation time:	15. 06. 2019 20:29

#	Modifying user name:	WinNT
#	Modification time:	15. 06. 2019 20:29

#	Program:	/corina/corina34_cracker 3.40 0067  02.08.2006

@<TRIPOS>MOLECULE
ASD03090783
  40   43    0    0    0
SMALL
NO_CHARGES


@<TRIPOS>ATOM
   1 N1            -0.0166     1.3761     0.0096 N.am    
   2 C2             0.0021    -0.0041     0.0020 C.2     
   3 N3            -0.9471    -0.7161    -0.5376 N.2     
   4 C4            -2.0569     0.0208    -1.1304 C.3     
   5 C5            -2.3924     1.1359    -0.0946 C.3     
   6 C6            -1.2234     2.0294     0.0304 C.2     
   7 O7            -1.3211     3.2336     0.1340 O.2     
   8 C8             1.2368     2.1345     0.0017 C.3     
   9 S9            -3.6642    -0.8510    -1.0235 S.3     
  10 C10           -4.6205     0.6357    -0.7534 C.2     
  11 C11           -3.7762     1.5751    -0.2807 C.2     
  12 N12           -5.9818     0.7937    -0.9872 N.pl3   
  13 C13           -6.6790     2.0796    -0.7270 C.3     
  14 C14           -7.0620     2.6039    -2.1099 C.3     
  15 N15           -7.8989     1.6742    -2.8205 N.3     
  16 C16           -7.2710     0.7635    -3.7398 C.3     
  17 C17           -6.6902    -0.4438    -3.0036 C.3     
  18 C18           -6.8095    -0.2969    -1.5101 C.3     
  19 C19           -8.2503    -0.0163    -1.0797 C.3     
  20 C20           -8.9078     1.0000    -1.9986 C.3     
  21 H21            0.8362    -0.5141     0.4609 H       
  22 H22           -1.8284     0.4029    -2.1253 H       
  23 H23           -2.4145     0.5925     0.8500 H       
  24 H24            2.0795     1.4434    -0.0100 H       
  25 H25            1.2732     2.7670    -0.8853 H       
  26 H26            1.2902     2.7575     0.8946 H       
  27 H27           -4.0986     2.5808    -0.0550 H       
  28 H28           -7.5716     1.9117    -0.1245 H       
  29 H29           -6.0091     2.7799    -0.2281 H       
  30 H30           -7.5958     3.5475    -1.9966 H       
  31 H31           -6.1543     2.7781    -2.6877 H       
  32 H32           -8.0096     0.4198    -4.4640 H       
  33 H33           -6.4693     1.2817    -4.2658 H       
  34 H34           -7.2233    -1.3412    -3.3175 H       
  35 H35           -5.6376    -0.5474    -3.2669 H       
  36 H36           -6.4933    -1.2280    -1.0399 H       
  37 H37           -8.8201    -0.9450    -1.1081 H       
  38 H38           -8.2508     0.3725    -0.0614 H       
  39 H39           -9.4366     1.7409    -1.3990 H       
  40 H40           -9.6191     0.4906    -2.6487 H       
@<TRIPOS>BOND
   1    1    2 1
   2    1    8 1
   3    1    6 am
   4    2    3 2
   5    2   21 1
   6    3    4 1
   7    4    5 1
   8    4    9 1
   9    4   22 1
  10    5    6 1
  11    5   11 1
  12    5   23 1
  13    6    7 2
  14    8   24 1
  15    8   25 1
  16    8   26 1
  17    9   10 1
  18   10   11 2
  19   10   12 1
  20   11   27 1
  21   12   13 1
  22   12   18 1
  23   13   14 1
  24   13   28 1
  25   13   29 1
  26   14   15 1
  27   14   30 1
  28   14   31 1
  29   15   16 1
  30   15   20 1
  31   16   17 1
  32   16   32 1
  33   16   33 1
  34   17   18 1
  35   17   34 1
  36   17   35 1
  37   18   19 1
  38   18   36 1
  39   19   20 1
  40   19   37 1
  41   19   38 1
  42   20   39 1
  43   20   40 1

#	End of record

