#	Name: ASD01913338
#	Creating user name:	WinNT
#	Creation time:	15. 06. 2019 20:01

#	Modifying user name:	WinNT
#	Modification time:	15. 06. 2019 20:01

#	Program:	/corina/corina34_cracker 3.40 0067  02.08.2006

@<TRIPOS>MOLECULE
ASD01913338
  38   40    0    0    0
SMALL
NO_CHARGES


@<TRIPOS>ATOM
   1 C1            -0.0166     1.3765     0.0096 C.2     
   2 C2             0.0021    -0.0041     0.0020 C.2     
   3 C3             1.2499    -0.6727    -0.0135 C.2     
   4 N4             2.3635     0.0159    -0.0200 N.2     
   5 C5             2.3515     1.3566    -0.0127 C.2     
   6 N6             1.1687     2.0507     0.0019 N.pl3   
   7 C7             3.3713     2.2994    -0.0170 C.2     
   8 C8             2.7833     3.5556    -0.0048 C.2     
   9 N9             1.4769     3.4160     0.0064 N.2     
  10 C10            3.5233     4.8684    -0.0045 C.3     
  11 C11            4.0862     5.1369    -1.4016 C.3     
  12 C12            2.5635     5.9949     0.3838 C.3     
  13 C13            4.6716     4.8064     1.0047 C.3     
  14 C14           -1.2215    -0.7480     0.0102 C.1     
  15 C15           -2.2246    -1.3579     0.0169 C.1     
  16 C16           -3.4482    -2.1018     0.0250 C.ar    
  17 C17           -3.4208    -3.5008     0.0172 C.ar    
  18 C18           -4.6063    -4.2106     0.0252 C.ar    
  19 C19           -5.8165    -3.5410     0.0407 C.ar    
  20 C20           -5.8502    -2.1573     0.0480 C.ar    
  21 C21           -4.6757    -1.4345     0.0466 C.ar    
  22 F22           -2.2391    -4.1554     0.0016 F       
  23 H23           -0.9539     1.9131     0.0170 H       
  24 H24            1.2833    -1.7522    -0.0196 H       
  25 H25            4.4311     2.0918    -0.0278 H       
  26 H26            3.2681     5.1811    -2.1206 H       
  27 H27            4.6214     6.0865    -1.4014 H       
  28 H28            4.7700     4.3344    -1.6782 H       
  29 H29            2.1625     5.8036     1.3791 H       
  30 H30            3.0987     6.9444     0.3840 H       
  31 H31            1.7454     6.0391    -0.3352 H       
  32 H32            5.3555     4.0039     0.7281 H       
  33 H33            5.2069     5.7559     1.0049 H       
  34 H34            4.2706     4.6151     2.0000 H       
  35 H35           -4.5880    -5.2904     0.0188 H       
  36 H36           -6.7401    -4.1008     0.0469 H       
  37 H37           -6.7993    -1.6420     0.0595 H       
  38 H38           -4.7047    -0.3549     0.0523 H       
@<TRIPOS>BOND
   1    1    2 2
   2    1    6 1
   3    1   23 1
   4    2    3 1
   5    2   14 1
   6    3    4 2
   7    3   24 1
   8    4    5 1
   9    5    6 1
  10    5    7 2
  11    6    9 1
  12    7    8 1
  13    7   25 1
  14    8    9 2
  15    8   10 1
  16   10   11 1
  17   10   12 1
  18   10   13 1
  19   11   26 1
  20   11   27 1
  21   11   28 1
  22   12   29 1
  23   12   30 1
  24   12   31 1
  25   13   32 1
  26   13   33 1
  27   13   34 1
  28   14   15 3
  29   15   16 1
  30   16   17 ar
  31   16   21 ar
  32   17   18 ar
  33   17   22 1
  34   18   19 ar
  35   18   35 1
  36   19   20 ar
  37   19   36 1
  38   20   21 ar
  39   20   37 1
  40   21   38 1

#	End of record

