#	Name: ASD01200259
#	Creating user name:	WinNT
#	Creation time:	15. 06. 2019 19:08

#	Modifying user name:	WinNT
#	Modification time:	15. 06. 2019 19:08

#	Program:	/corina/corina34_cracker 3.40 0067  02.08.2006

@<TRIPOS>MOLECULE
ASD01200259
  35   35    0    0    0
SMALL
NO_CHARGES


@<TRIPOS>ATOM
   1 C1             0.0303     1.4975     0.0290 C.2     
   2 C2             0.1244    -0.0026    -0.0790 C.3     
   3 C3            -0.7553    -0.4870    -1.2333 C.3     
   4 C4            -0.7689    -2.0168    -1.2570 C.3     
   5 C5            -1.4599    -2.5402     0.0038 C.3     
   6 O6             1.0267     2.1776    -0.0918 O.2     
   7 N7            -1.1623     2.0835     0.2544 N.am    
   8 C8            -1.5289    -2.5009    -2.4935 C.3     
   9 C9             1.5552    -0.3990    -0.3372 C.ar    
  10 C10            2.2527    -1.1251     0.6101 C.ar    
  11 C11            3.5657    -1.4895     0.3733 C.ar    
  12 C12            4.1809    -1.1265    -0.8131 C.ar    
  13 C13            3.4817    -0.4000    -1.7597 C.ar    
  14 C14            2.1676    -0.0412    -1.5236 C.ar    
  15 Cl15           5.8292    -1.5825    -1.1117 Cl      
  16 Cl16           4.4422    -2.4008     1.5628 Cl      
  17 C17           -1.2464     3.4252     0.3510 C.2     
  18 N18           -2.4390     4.0111     0.5764 N.am    
  19 O19           -0.2468     4.1066     0.2349 O.2     
  20 H20           -0.2158    -0.4560     0.8521 H       
  21 H21           -1.7712    -0.1167    -1.0960 H       
  22 H22           -0.3564    -0.1126    -2.1760 H       
  23 H23            0.2550    -2.3887    -1.2911 H       
  24 H24           -2.4839    -2.1682     0.0379 H       
  25 H25           -1.4697    -3.6300    -0.0131 H       
  26 H26           -0.9185    -2.1953     0.8847 H       
  27 H27           -1.9601     1.5396     0.3471 H       
  28 H28           -0.9889    -2.2022    -3.3919 H       
  29 H29           -1.6143    -3.5872    -2.4652 H       
  30 H30           -2.5250    -2.0583    -2.5041 H       
  31 H31            1.7724    -1.4076     1.5353 H       
  32 H32            3.9609    -0.1166    -2.6852 H       
  33 H33            1.6206     0.5225    -2.2648 H       
  34 H34           -3.2368     3.4672     0.6690 H       
  35 H35           -2.4995     4.9767     0.6459 H       
@<TRIPOS>BOND
   1    1    2 1
   2    1    6 2
   3    1    7 am
   4    2    3 1
   5    2    9 1
   6    2   20 1
   7    3    4 1
   8    3   21 1
   9    3   22 1
  10    4    5 1
  11    4    8 1
  12    4   23 1
  13    5   24 1
  14    5   25 1
  15    5   26 1
  16    7   17 am
  17    7   27 1
  18    8   28 1
  19    8   29 1
  20    8   30 1
  21    9   10 ar
  22    9   14 ar
  23   10   11 ar
  24   10   31 1
  25   11   12 ar
  26   11   16 1
  27   12   13 ar
  28   12   15 1
  29   13   14 ar
  30   13   32 1
  31   14   33 1
  32   17   18 am
  33   17   19 2
  34   18   34 1
  35   18   35 1

#	End of record

