#	Name: ASD01028618
#	Creating user name:	WinNT
#	Creation time:	15. 06. 2019 18:57

#	Modifying user name:	WinNT
#	Modification time:	15. 06. 2019 18:57

#	Program:	/corina/corina34_cracker 3.40 0067  02.08.2006

@<TRIPOS>MOLECULE
ASD01028618
  48   49    0    0    0
SMALL
NO_CHARGES


@<TRIPOS>ATOM
   1 C1            -0.0162     1.3436     0.0094 C.2     
   2 N2             0.0021    -0.0041     0.0020 N.am    
   3 O3             1.0278     1.9654     0.0028 O.2     
   4 O4            -1.1914     2.0009     0.0186 O.3     
   5 C5            -1.2565    -0.7538     0.0100 C.3     
   6 C6             2.7493    -2.2444    -0.0362 C.2     
   7 C7             3.2434    -3.5635    -0.0473 C.2     
   8 C8             2.3653    -4.5996    -0.0438 C.2     
   9 C9             0.9735    -4.3508    -0.0292 C.2     
  10 N10            0.5097    -3.1198    -0.0192 N.2     
  11 N11            1.3865    -2.0336    -0.0221 N.pl3   
  12 N12            2.4156    -0.1400    -0.0197 N.2     
  13 N13            3.3216    -1.0540    -0.0308 N.2     
  14 C14            1.2191    -0.6848    -0.0133 C.2     
  15 C15            0.0580    -5.4519    -0.0257 C.1     
  16 C16           -0.6926    -6.3546    -0.0228 C.1     
  17 C17           -1.6337    -7.4865    -0.0192 C.3     
  18 C18           -3.0688    -6.9564    -0.0028 C.3     
  19 C19           -3.3486    -6.2016    -1.3039 C.3     
  20 C20           -4.0439    -8.1283     0.1267 C.3     
  21 O21           -1.4315    -8.2778    -1.1918 O.3     
  22 C22           -1.1351     3.4518     0.0262 C.3     
  23 C23           -0.4005     3.9403    -1.2239 C.3     
  24 C24           -2.5567     4.0173     0.0360 C.3     
  25 C25           -0.3887     3.9267     1.2745 C.3     
  26 H26           -1.5785    -0.9342    -1.0156 H       
  27 H27           -1.1084    -1.7071     0.5173 H       
  28 H28           -2.0192    -0.1778     0.5342 H       
  29 H29            4.3074    -3.7487    -0.0588 H       
  30 H30            2.7309    -5.6158    -0.0526 H       
  31 H31           -1.4623    -8.0986     0.8663 H       
  32 H32           -3.1973    -6.2817     0.8435 H       
  33 H33           -4.3710    -5.8240    -1.2923 H       
  34 H34           -2.6539    -5.3667    -1.3962 H       
  35 H35           -3.2201    -6.8764    -2.1503 H       
  36 H36           -3.8446    -8.6661     1.0536 H       
  37 H37           -5.0663    -7.7507     0.1383 H       
  38 H38           -3.9154    -8.8031    -0.7196 H       
  39 H39           -1.5674    -7.7965    -2.0194 H       
  40 H40           -0.9323     3.6020    -2.1132 H       
  41 H41           -0.3583     5.0294    -1.2182 H       
  42 H42            0.6122     3.5374    -1.2309 H       
  43 H43           -3.0800     3.6694     0.9266 H       
  44 H44           -2.5144     5.1065     0.0417 H       
  45 H45           -3.0885     3.6790    -0.8533 H       
  46 H46            0.6241     3.5238     1.2675 H       
  47 H47           -0.3464     5.0159     1.2802 H       
  48 H48           -0.9120     3.5787     2.1651 H       
@<TRIPOS>BOND
   1    1    2 am
   2    1    3 2
   3    1    4 1
   4    2    5 1
   5    2   14 1
   6    4   22 1
   7    5   26 1
   8    5   27 1
   9    5   28 1
  10    6    7 1
  11    6   11 1
  12    6   13 2
  13    7    8 2
  14    7   29 1
  15    8    9 1
  16    8   30 1
  17    9   10 2
  18    9   15 1
  19   10   11 1
  20   11   14 1
  21   12   13 1
  22   12   14 2
  23   15   16 3
  24   16   17 1
  25   17   18 1
  26   17   21 1
  27   17   31 1
  28   18   19 1
  29   18   20 1
  30   18   32 1
  31   19   33 1
  32   19   34 1
  33   19   35 1
  34   20   36 1
  35   20   37 1
  36   20   38 1
  37   21   39 1
  38   22   23 1
  39   22   25 1
  40   22   24 1
  41   23   40 1
  42   23   41 1
  43   23   42 1
  44   24   43 1
  45   24   44 1
  46   24   45 1
  47   25   46 1
  48   25   47 1
  49   25   48 1

#	End of record

