#	Name: ASD01150046
#	Creating user name:	WinNT
#	Creation time:	15. 06. 2019 19:03

#	Modifying user name:	WinNT
#	Modification time:	15. 06. 2019 19:03

#	Program:	/corina/corina34_cracker 3.40 0067  02.08.2006

@<TRIPOS>MOLECULE
ASD01150046
  56   60    0    0    0
SMALL
NO_CHARGES


@<TRIPOS>ATOM
   1 C1            -0.0159     1.3210     0.0093 C.ar    
   2 N2             0.0021    -0.0041     0.0020 N.ar    
   3 C3            -1.1222    -0.7023     0.0094 C.ar    
   4 C4            -2.3400    -0.0265     0.0252 C.ar    
   5 C5            -2.3208     1.3810     0.0325 C.ar    
   6 N6            -1.1495     2.0064     0.0293 N.ar    
   7 C7            -3.6228    -0.7700     0.0334 C.ar    
   8 C8            -3.8485    -1.7861    -0.8938 C.ar    
   9 C9            -5.0441    -2.4751    -0.8811 C.ar    
  10 C10           -6.0177    -2.1591     0.0495 C.ar    
  11 C11           -5.7992    -1.1518     0.9720 C.ar    
  12 C12           -4.6053    -0.4596     0.9722 C.ar    
  13 C13           -7.3214    -2.9149     0.0579 C.3     
  14 F14           -7.2098    -4.0280     0.8980 F       
  15 F15           -8.3419    -2.0792     0.5243 F       
  16 F16           -7.6229    -3.3391    -1.2407 F       
  17 N17           -3.5023     2.1005     0.0477 N.pl3   
  18 C18           -3.4680     3.5650     0.0552 C.3     
  19 C19           -3.3520     4.0939     1.5031 C.3     
  20 C20           -4.6430     4.9417     1.7177 C.3     
  21 C21           -4.4371     6.2003     0.8205 C.3     
  22 C22           -4.5531     5.6714    -0.6273 C.3     
  23 C23           -4.8181     4.1430    -0.4687 C.3     
  24 C24           -5.6696     4.1316     0.8497 C.3     
  25 N25            1.1843     2.0087     0.0015 N.3     
  26 C26            2.3233     1.0801    -0.0143 C.3     
  27 C27            3.6268     1.8773    -0.1028 C.3     
  28 N28            3.7152     2.7951     1.0414 N.3     
  29 C29            2.5763     3.7237     1.0573 C.3     
  30 C30            1.2728     2.9266     1.1458 C.3     
  31 H31           -1.0957    -1.7819     0.0030 H       
  32 H32           -3.0892    -2.0334    -1.6210 H       
  33 H33           -5.2202    -3.2623    -1.5992 H       
  34 H34           -6.5630    -0.9091     1.6960 H       
  35 H35           -4.4359     0.3267     1.6929 H       
  36 H36           -4.3534     1.6352     0.0533 H       
  37 H37           -2.6370     3.9280    -0.5497 H       
  38 H38           -3.3205     3.2643     2.2093 H       
  39 H39           -2.4652     4.7186     1.6095 H       
  40 H40           -4.9190     5.1354     2.7542 H       
  41 H41           -5.2136     6.9392     1.0185 H       
  42 H42           -3.4500     6.6304     0.9900 H       
  43 H43           -5.3866     6.1503    -1.1412 H       
  44 H44           -3.6230     5.8415    -1.1697 H       
  45 H45           -5.2467     3.6412    -1.3362 H       
  46 H46           -5.8196     3.1215     1.2308 H       
  47 H47           -6.6138     4.6632     0.7312 H       
  48 H48            2.3213     0.4866     0.8999 H       
  49 H49            2.2418     0.4194    -0.8774 H       
  50 H50            4.4741     1.1918    -0.0855 H       
  51 H51            3.6407     2.4498    -1.0302 H       
  52 H52            3.7783     2.2854     1.9099 H       
  53 H53            2.6578     4.3844     1.9204 H       
  54 H54            2.5783     4.3172     0.1431 H       
  55 H55            0.4255     3.6120     1.1285 H       
  56 H56            1.2589     2.3540     2.0732 H       
@<TRIPOS>BOND
   1    1    2 ar
   2    1   25 1
   3    1    6 ar
   4    2    3 ar
   5    3    4 ar
   6    3   31 1
   7    4    5 ar
   8    4    7 1
   9    5    6 ar
  10    5   17 1
  11    7    8 ar
  12    7   12 ar
  13    8    9 ar
  14    8   32 1
  15    9   10 ar
  16    9   33 1
  17   10   11 ar
  18   10   13 1
  19   11   12 ar
  20   11   34 1
  21   12   35 1
  22   13   14 1
  23   13   15 1
  24   13   16 1
  25   17   18 1
  26   17   36 1
  27   18   19 1
  28   18   23 1
  29   18   37 1
  30   19   20 1
  31   19   38 1
  32   19   39 1
  33   20   21 1
  34   20   24 1
  35   20   40 1
  36   21   22 1
  37   21   41 1
  38   21   42 1
  39   22   23 1
  40   22   43 1
  41   22   44 1
  42   23   24 1
  43   23   45 1
  44   24   46 1
  45   24   47 1
  46   25   26 1
  47   25   30 1
  48   26   27 1
  49   26   48 1
  50   26   49 1
  51   27   28 1
  52   27   50 1
  53   27   51 1
  54   28   29 1
  55   28   52 1
  56   29   30 1
  57   29   53 1
  58   29   54 1
  59   30   55 1
  60   30   56 1

#	End of record

