#	Name: ASD01530073
#	Creating user name:	WinNT
#	Creation time:	15. 06. 2019 19:22

#	Modifying user name:	WinNT
#	Modification time:	15. 06. 2019 19:22

#	Program:	/corina/corina34_cracker 3.40 0067  02.08.2006

@<TRIPOS>MOLECULE
ASD01530073
  63   65    0    0    0
SMALL
NO_CHARGES


@<TRIPOS>ATOM
   1 C1             0.1782     0.8922     0.0285 C.ar    
   2 C2             0.4033    -0.4868     0.1055 C.ar    
   3 C3             1.7137    -0.9731     0.1469 C.ar    
   4 C4             2.7749    -0.0922     0.1115 C.ar    
   5 C5             1.2468     1.7583    -0.0058 C.ar    
   6 C6             1.3391     3.2645    -0.0849 C.3     
   7 C7             2.5452     1.2679     0.0355 C.ar    
   8 C8             3.4746     2.4587    -0.0175 C.3     
   9 O9             2.6739     3.6017     0.3349 O.3     
  10 C10            4.6138     2.2835     0.9886 C.3     
  11 C11            5.5442     3.4962     0.9219 C.3     
  12 C12            6.6834     3.3210     1.9281 C.3     
  13 N13            7.5767     4.4854     1.8641 N.3     
  14 C14            8.5427     4.4693     2.9707 C.3     
  15 C15            8.2631     4.5516     0.5670 C.3     
  16 C16            4.0301     2.6221    -1.4088 C.ar    
  17 C17            3.8715     3.8205    -2.0795 C.ar    
  18 C18            4.3809     3.9717    -3.3553 C.ar    
  19 C19            5.0504     2.9223    -3.9617 C.ar    
  20 C20            5.2086     1.7225    -3.2889 C.ar    
  21 C21            4.7029     1.5754    -2.0112 C.ar    
  22 F22            5.5484     3.0688    -5.2089 F       
  23 C23           -0.7335    -1.4206     0.1433 C.2     
  24 C24           -0.4869    -2.9050     0.2262 C.3     
  25 O25           -1.8686    -0.9957     0.1077 O.2     
  26 C26           -1.8264    -3.6440     0.2512 C.3     
  27 C27           -1.5759    -5.1510     0.3354 C.3     
  28 N28           -2.8620    -5.8605     0.3594 N.3     
  29 C29           -3.5780    -5.6957    -0.9127 C.3     
  30 C30           -2.6731    -7.2823     0.6768 C.3     
  31 H31           -0.8310     1.2752    -0.0083 H       
  32 H32            1.8948    -2.0362     0.2067 H       
  33 H33            3.7874    -0.4666     0.1438 H       
  34 H34            1.1721     3.5978    -1.1092 H       
  35 H35            0.6087     3.7212     0.5830 H       
  36 H36            4.2008     2.1972     1.9937 H       
  37 H37            5.1755     1.3809     0.7479 H       
  38 H38            5.9572     3.5825    -0.0831 H       
  39 H39            4.9825     4.3988     1.1627 H       
  40 H40            6.2705     3.2347     2.9331 H       
  41 H41            7.2451     2.4184     1.6874 H       
  42 H42            9.1454     3.5629     2.9137 H       
  43 H43            9.1916     5.3422     2.8992 H       
  44 H44            8.0079     4.4909     3.9202 H       
  45 H45            7.5251     4.6331    -0.2309 H       
  46 H46            8.9180     5.4227     0.5465 H       
  47 H47            8.8557     3.6482     0.4230 H       
  48 H48            3.3490     4.6388    -1.6065 H       
  49 H49            4.2566     4.9079    -3.8792 H       
  50 H50            5.7306     0.9033    -3.7610 H       
  51 H51            4.8298     0.6410    -1.4847 H       
  52 H52            0.0894    -3.2266    -0.6413 H       
  53 H53            0.0696    -3.1306     1.1360 H       
  54 H54           -2.4026    -3.3224     1.1188 H       
  55 H55           -2.3828    -3.4184    -0.6585 H       
  56 H56           -0.9997    -5.4726    -0.5321 H       
  57 H57           -1.0195    -5.3766     1.2451 H       
  58 H58           -2.9724    -6.0973    -1.7251 H       
  59 H59           -4.5265    -6.2308    -0.8677 H       
  60 H60           -3.7663    -4.6367    -1.0891 H       
  61 H61           -2.2035    -7.3767     1.6560 H       
  62 H62           -3.6408    -7.7837     0.6881 H       
  63 H63           -2.0347    -7.7413    -0.0780 H       
@<TRIPOS>BOND
   1    1    2 ar
   2    1    5 ar
   3    1   31 1
   4    2    3 ar
   5    2   23 1
   6    3    4 ar
   7    3   32 1
   8    4    7 ar
   9    4   33 1
  10    5    7 ar
  11    5    6 1
  12    6    9 1
  13    6   34 1
  14    6   35 1
  15    7    8 1
  16    8    9 1
  17    8   10 1
  18    8   16 1
  19   10   11 1
  20   10   36 1
  21   10   37 1
  22   11   12 1
  23   11   38 1
  24   11   39 1
  25   12   13 1
  26   12   40 1
  27   12   41 1
  28   13   14 1
  29   13   15 1
  30   14   42 1
  31   14   43 1
  32   14   44 1
  33   15   45 1
  34   15   46 1
  35   15   47 1
  36   16   17 ar
  37   16   21 ar
  38   17   18 ar
  39   17   48 1
  40   18   19 ar
  41   18   49 1
  42   19   20 ar
  43   19   22 1
  44   20   21 ar
  45   20   50 1
  46   21   51 1
  47   23   24 1
  48   23   25 2
  49   24   26 1
  50   24   52 1
  51   24   53 1
  52   26   27 1
  53   26   54 1
  54   26   55 1
  55   27   28 1
  56   27   56 1
  57   27   57 1
  58   28   29 1
  59   28   30 1
  60   29   58 1
  61   29   59 1
  62   29   60 1
  63   30   61 1
  64   30   62 1
  65   30   63 1

#	End of record

