#	Name: ASD01883878
#	Creating user name:	WinNT
#	Creation time:	15. 06. 2019 19:47

#	Modifying user name:	WinNT
#	Modification time:	15. 06. 2019 19:47

#	Program:	/corina/corina34_cracker 3.40 0067  02.08.2006

@<TRIPOS>MOLECULE
ASD01883878
  56   59    0    0    0
SMALL
NO_CHARGES


@<TRIPOS>ATOM
   1 C1             0.1595     1.3228     0.5317 C.ar    
   2 C2             0.2726    -0.0311     0.6599 C.ar    
   3 C3             1.5394    -0.6284     0.7061 C.ar    
   4 C4             2.6914     0.1744     0.6197 C.ar    
   5 C5             2.5605     1.5459     0.4900 C.ar    
   6 C6             1.2978     2.1200     0.4459 C.ar    
   7 C7             1.6635    -2.0816     0.8441 C.2     
   8 O8             2.7554    -2.6064     0.7764 O.2     
   9 C9             0.4350    -2.9246     1.0703 C.3     
  10 O10            3.9226    -0.3922     0.6637 O.3     
  11 C11            3.7880     2.4153     0.3971 C.3     
  12 C12            4.1917     2.5726    -1.0703 C.3     
  13 C13            5.4379     3.4552    -1.1646 C.3     
  14 O14            1.1718     3.4648     0.3182 O.3     
  15 C15           -0.1561     3.9912     0.2788 C.3     
  16 C16           -0.0982     5.4902     0.1348 C.ar    
  17 C17           -0.0028     7.6669     1.1323 C.ar    
  18 C18           -0.0560     6.2910     1.2609 C.ar    
  19 C19           -0.0815     6.0626    -1.1225 C.ar    
  20 C20           -0.0277     7.4426    -1.2543 C.ar    
  21 C21            0.0092     8.2445    -0.1223 C.ar    
  22 O22           -0.0108     8.0082    -2.4898 O.3     
  23 C23           -1.1214     7.8907    -3.2590 C.ar    
  24 C24           -3.3146     7.2047    -3.4696 C.ar    
  25 N25           -2.2121     7.3385    -2.7568 N.ar    
  26 C26           -1.1064     8.3604    -4.5776 C.ar    
  27 C27           -2.2592     8.2306    -5.3522 C.ar    
  28 C28           -3.3744     7.6394    -4.7796 C.ar    
  29 C29            0.1150     8.9863    -5.1418 C.2     
  30 N30            0.2624     9.4672    -6.3604 N.2     
  31 N31            1.4634     9.9237    -6.4616 N.pl3   
  32 N32            2.0814     9.7474    -5.3462 N.2     
  33 N33            1.2816     9.1782    -4.5095 N.2     
  34 H34           -0.8190     1.7782     0.4920 H       
  35 H35           -0.6151    -0.6427     0.7261 H       
  36 H36           -0.4318    -2.2764     1.1991 H       
  37 H37            0.2775    -3.5753     0.2101 H       
  38 H38            0.5708    -3.5319     1.9652 H       
  39 H39            4.2724    -0.6407    -0.2028 H       
  40 H40            3.5718     3.3957     0.8215 H       
  41 H41            4.6044     1.9516     0.9509 H       
  42 H42            4.4079     1.5922    -1.4947 H       
  43 H43            3.3753     3.0362    -1.6240 H       
  44 H44            5.2217     4.4356    -0.7401 H       
  45 H45            6.2543     2.9915    -0.6108 H       
  46 H46            5.7255     3.5672    -2.2099 H       
  47 H47           -0.6908     3.5650    -0.5700 H       
  48 H48           -0.6761     3.7346     1.2018 H       
  49 H49            0.0297     8.2904     2.0136 H       
  50 H50           -0.0649     5.8414     2.2428 H       
  51 H51           -0.1100     5.4364    -2.0019 H       
  52 H52            0.0501     9.3191    -0.2222 H       
  53 H53           -4.1844     6.7474    -3.0216 H       
  54 H54           -2.2824     8.5825    -6.3730 H       
  55 H55           -4.2834     7.5233    -5.3512 H       
  56 H56            1.8423    10.3352    -7.2540 H       
@<TRIPOS>BOND
   1    1    2 ar
   2    1    6 ar
   3    1   34 1
   4    2    3 ar
   5    2   35 1
   6    3    4 ar
   7    3    7 1
   8    4    5 ar
   9    4   10 1
  10    5    6 ar
  11    5   11 1
  12    6   14 1
  13    7    8 2
  14    7    9 1
  15    9   36 1
  16    9   37 1
  17    9   38 1
  18   10   39 1
  19   11   12 1
  20   11   40 1
  21   11   41 1
  22   12   13 1
  23   12   42 1
  24   12   43 1
  25   13   44 1
  26   13   45 1
  27   13   46 1
  28   14   15 1
  29   15   16 1
  30   15   47 1
  31   15   48 1
  32   16   19 ar
  33   16   18 ar
  34   17   18 ar
  35   17   21 ar
  36   17   49 1
  37   18   50 1
  38   19   20 ar
  39   19   51 1
  40   20   21 ar
  41   20   22 1
  42   21   52 1
  43   22   23 1
  44   23   26 ar
  45   23   25 ar
  46   24   25 ar
  47   24   28 ar
  48   24   53 1
  49   26   27 ar
  50   26   29 1
  51   27   28 ar
  52   27   54 1
  53   28   55 1
  54   29   30 2
  55   29   33 1
  56   30   31 1
  57   31   32 1
  58   31   56 1
  59   32   33 2

#	End of record

