#	Name: ASD03082052
#	Creating user name:	WinNT
#	Creation time:	15. 06. 2019 20:27

#	Modifying user name:	WinNT
#	Modification time:	15. 06. 2019 20:27

#	Program:	/corina/corina34_cracker 3.40 0067  02.08.2006

@<TRIPOS>MOLECULE
ASD03082052
  63   66    0    0    0
SMALL
NO_CHARGES


@<TRIPOS>ATOM
   1 C1            -0.4178     2.0521     0.2000 C.3     
   2 C2            -0.5565     0.5288     0.1515 C.3     
   3 N3             0.0221     0.0229    -1.0998 N.3     
   4 C4             1.4554     0.3305    -1.1846 C.3     
   5 C5             1.6542     1.8479    -1.1760 C.3     
   6 C6             1.0640     2.4278     0.1124 C.3     
   7 C7            -0.2163    -1.4194    -1.2447 C.3     
   8 C8            -1.7160    -1.6746    -1.4078 C.3     
   9 C9            -1.9642    -3.1768    -1.5587 C.3     
  10 C10           -3.4414    -3.4282    -1.7193 C.ar    
  11 C11           -4.0069    -3.4427    -2.9806 C.ar    
  12 C12           -5.3619    -3.6733    -3.1279 C.ar    
  13 C13           -6.1513    -3.8898    -2.0140 C.ar    
  14 C14           -5.5856    -3.8762    -0.7528 C.ar    
  15 C15           -4.2299    -3.6499    -0.6057 C.ar    
  16 C16            3.1265     2.1629    -1.2412 C.2     
  17 N17            3.5418     3.4450    -1.2455 N.am    
  18 O18            3.9376     1.2625    -1.2898 O.2     
  19 C19            4.9731     3.7512    -1.3090 C.3     
  20 C20            5.1635     5.2422    -1.4175 C.ar    
  21 C21            5.5411     5.8051    -2.6196 C.ar    
  22 C22            5.7158     7.1737    -2.7208 C.ar    
  23 C23            5.5138     7.9851    -1.6191 C.ar    
  24 C24            5.1364     7.4326    -0.4117 C.ar    
  25 C25            4.9530     6.0556    -0.3058 C.ar    
  26 C26            4.5469     5.4559     0.9894 C.ar    
  27 C27            5.3287     4.4628     1.5759 C.ar    
  28 C28            4.9462     3.9085     2.7806 C.ar    
  29 C29            3.7891     4.3372     3.4057 C.ar    
  30 C30            3.0091     5.3225     2.8278 C.ar    
  31 C31            3.3854     5.8881     1.6264 C.ar    
  32 H32           -0.9553     2.4933    -0.6393 H       
  33 H33           -0.8333     2.4257     1.1359 H       
  34 H34           -0.0303     0.0890     0.9988 H       
  35 H35           -1.6114     0.2585     0.1993 H       
  36 H36            1.9722    -0.1083    -0.3310 H       
  37 H37            1.8619    -0.0838    -2.1072 H       
  38 H38            1.1493     2.2860    -2.0369 H       
  39 H39            1.1646     3.5131     0.1029 H       
  40 H40            1.5948     2.0193     0.9723 H       
  41 H41            0.3128    -1.7886    -2.1233 H       
  42 H42            0.1463    -1.9385    -0.3574 H       
  43 H43           -2.2450    -1.3054    -0.5292 H       
  44 H44           -2.0785    -1.1555    -2.2950 H       
  45 H45           -1.4352    -3.5460    -2.4372 H       
  46 H46           -1.6017    -3.6959    -0.6714 H       
  47 H47           -3.3902    -3.2735    -3.8509 H       
  48 H48           -5.8039    -3.6839    -4.1133 H       
  49 H49           -7.2101    -4.0692    -2.1291 H       
  50 H50           -6.2024    -4.0450     0.1176 H       
  51 H51           -3.7879    -3.6393     0.3796 H       
  52 H52            2.8931     4.1651    -1.2067 H       
  53 H53            5.4628     3.3872    -0.4058 H       
  54 H54            5.4104     3.2646    -2.1808 H       
  55 H55            5.7008     5.1760    -3.4828 H       
  56 H56            6.0113     7.6101    -3.6634 H       
  57 H57            5.6519     9.0529    -1.7036 H       
  58 H58            4.9796     8.0670     0.4481 H       
  59 H59            6.2320     4.1270     1.0884 H       
  60 H60            5.5512     3.1383     3.2359 H       
  61 H61            3.4935     3.9007     4.3484 H       
  62 H62            2.1063     5.6530     3.3199 H       
  63 H63            2.7756     6.6573     1.1761 H       
@<TRIPOS>BOND
   1    1    2 1
   2    1    6 1
   3    1   32 1
   4    1   33 1
   5    2    3 1
   6    2   34 1
   7    2   35 1
   8    3    4 1
   9    3    7 1
  10    4    5 1
  11    4   36 1
  12    4   37 1
  13    5    6 1
  14    5   16 1
  15    5   38 1
  16    6   39 1
  17    6   40 1
  18    7    8 1
  19    7   41 1
  20    7   42 1
  21    8    9 1
  22    8   43 1
  23    8   44 1
  24    9   10 1
  25    9   45 1
  26    9   46 1
  27   10   11 ar
  28   10   15 ar
  29   11   12 ar
  30   11   47 1
  31   12   13 ar
  32   12   48 1
  33   13   14 ar
  34   13   49 1
  35   14   15 ar
  36   14   50 1
  37   15   51 1
  38   16   17 am
  39   16   18 2
  40   17   19 1
  41   17   52 1
  42   19   20 1
  43   19   53 1
  44   19   54 1
  45   20   21 ar
  46   20   25 ar
  47   21   22 ar
  48   21   55 1
  49   22   23 ar
  50   22   56 1
  51   23   24 ar
  52   23   57 1
  53   24   25 ar
  54   24   58 1
  55   25   26 1
  56   26   27 ar
  57   26   31 ar
  58   27   28 ar
  59   27   59 1
  60   28   29 ar
  61   28   60 1
  62   29   30 ar
  63   29   61 1
  64   30   31 ar
  65   30   62 1
  66   31   63 1

#	End of record

