#	Name: ASD01917083
#	Creating user name:	WinNT
#	Creation time:	15. 06. 2019 20:08

#	Modifying user name:	WinNT
#	Modification time:	15. 06. 2019 20:08

#	Program:	/corina/corina34_cracker 3.40 0067  02.08.2006

@<TRIPOS>MOLECULE
ASD01917083
  42   44    0    0    0
SMALL
NO_CHARGES


@<TRIPOS>ATOM
   1 C1            -0.0421     1.4701     0.1494 C.ar    
   2 C2            -0.0083    -0.0060     0.0625 C.2     
   3 N3             1.0568    -0.7658     0.2101 N.2     
   4 C4             0.7165    -2.0517     0.0673 C.2     
   5 N5            -0.5746    -2.1279    -0.1739 N.2     
   6 N6            -1.0681    -0.8133    -0.1769 N.pl3   
   7 C7            -2.4545    -0.3972    -0.4025 C.3     
   8 C8            -3.1963    -0.3892     0.9093 C.2     
   9 O9            -4.4913    -0.0376     0.9459 O.3     
  10 O10           -2.6255    -0.6992     1.9281 O.2     
  11 C11            1.6448    -3.2052     0.1652 C.ar    
  12 C12            1.1317     2.2074    -0.0131 C.ar    
  13 C13            1.1660    -4.5030    -0.0037 C.ar    
  14 C14            2.0312    -5.5731     0.0873 C.ar    
  15 C15            3.3780    -5.3584     0.3469 C.ar    
  16 C16            3.8579    -4.0666     0.5156 C.ar    
  17 C17            2.9983    -2.9923     0.4204 C.ar    
  18 O18            4.2280    -6.4145     0.4365 O.3     
  19 C19            5.6006    -6.1216     0.7057 C.3     
  20 C20            1.0965     3.5828     0.0686 C.ar    
  21 C21           -0.1051     4.2351     0.3128 C.ar    
  22 C22           -1.2751     3.5047     0.4756 C.ar    
  23 C23           -1.2487     2.1294     0.3885 C.ar    
  24 O24           -0.1360     5.5907     0.3932 O.3     
  25 C25           -1.4050     6.1968     0.6465 C.3     
  26 H26           -2.4679     0.6038    -0.8336 H       
  27 H27           -2.9362    -1.0945    -1.0880 H       
  28 H28           -4.9246    -0.0476     1.8103 H       
  29 H29            2.0666     1.7008    -0.2024 H       
  30 H30            0.1183    -4.6707    -0.2054 H       
  31 H31            1.6606    -6.5791    -0.0431 H       
  32 H32            4.9061    -3.9025     0.7175 H       
  33 H33            3.3722    -1.9876     0.5514 H       
  34 H34            6.0000    -5.4908    -0.0884 H       
  35 H35            5.6804    -5.5997     1.6593 H       
  36 H36            6.1682    -7.0511     0.7516 H       
  37 H37            2.0044     4.1541    -0.0571 H       
  38 H38           -2.2076     4.0153     0.6661 H       
  39 H39           -2.1590     1.5621     0.5149 H       
  40 H40           -2.0988     5.9349    -0.1523 H       
  41 H41           -1.7954     5.8380     1.5989 H       
  42 H42           -1.2889     7.2799     0.6863 H       
@<TRIPOS>BOND
   1    1    2 1
   2    1   12 ar
   3    1   23 ar
   4    2    3 2
   5    2    6 1
   6    3    4 1
   7    4    5 2
   8    4   11 1
   9    5    6 1
  10    6    7 1
  11    7    8 1
  12    7   26 1
  13    7   27 1
  14    8    9 1
  15    8   10 2
  16    9   28 1
  17   11   13 ar
  18   11   17 ar
  19   12   20 ar
  20   12   29 1
  21   13   14 ar
  22   13   30 1
  23   14   15 ar
  24   14   31 1
  25   15   16 ar
  26   15   18 1
  27   16   17 ar
  28   16   32 1
  29   17   33 1
  30   18   19 1
  31   19   34 1
  32   19   35 1
  33   19   36 1
  34   20   21 ar
  35   20   37 1
  36   21   22 ar
  37   21   24 1
  38   22   23 ar
  39   22   38 1
  40   23   39 1
  41   24   25 1
  42   25   40 1
  43   25   41 1
  44   25   42 1

#	End of record

