#	Name: ASD01209161
#	Creating user name:	WinNT
#	Creation time:	15. 06. 2019 19:11

#	Modifying user name:	WinNT
#	Modification time:	15. 06. 2019 19:11

#	Program:	/corina/corina34_cracker 3.40 0067  02.08.2006

@<TRIPOS>MOLECULE
ASD01209161
  52   53    0    0    0
SMALL
NO_CHARGES


@<TRIPOS>ATOM
   1 O1            -0.0381     1.4519    -0.0037 O.3     
   2 O2             2.1224     2.0937     1.3501 O.3     
   3 C3             8.5118     9.3211     2.7656 C.ar    
   4 C4             8.1899     9.1751     4.1080 C.ar    
   5 C5             7.0711     8.4532     4.4815 C.ar    
   6 C6             6.2665     7.8740     3.5221 C.ar    
   7 C7             6.5821     8.0154     2.1693 C.ar    
   8 C8             7.7083     8.7484     1.7939 C.ar    
   9 C9             5.7228     7.3959     1.1385 C.2     
  10 N10            4.6324     6.6930     1.5036 N.am    
  11 O11            5.9997     7.5204    -0.0386 O.2     
  12 C12            3.8250     6.1108     0.5350 C.2     
  13 P13            1.3012     2.3454    -0.0117 P.3     
  14 O14            2.1400     1.9667    -1.1707 O.2     
  15 C15            0.8547     4.1086    -0.1349 C.3     
  16 N16            2.7571     5.4168     0.7775 N.2     
  17 S17            4.0904     6.2114    -1.1510 S.3     
  18 C18            2.6509     5.2398    -1.4463 C.2     
  19 C19            2.1073     4.9360    -0.2660 C.2     
  20 C20           -0.0206     0.0231    -0.0205 C.3     
  21 C21           -1.4566    -0.5048    -0.0070 C.3     
  22 C22            2.7037     0.8324     1.6866 C.3     
  23 C23            3.4073     0.9401     3.0409 C.3     
  24 O24            9.6129    10.0313     2.4045 O.3     
  25 C25           10.3256    10.6985     3.4481 C.3     
  26 C26           11.3121     9.7246     4.0953 C.3     
  27 C27           11.0915    11.8870     2.8635 C.3     
  28 H28            8.8159     9.6265     4.8635 H       
  29 H29            6.8263     8.3425     5.5276 H       
  30 H30            5.3937     7.3106     3.8172 H       
  31 H31            7.9574     8.8616     0.7492 H       
  32 H32            4.4115     6.5936     2.4429 H       
  33 H33            0.2238     4.2633    -1.0102 H       
  34 H34            0.3125     4.4096     0.7615 H       
  35 H35            2.2724     4.9445    -2.4137 H       
  36 H36            0.4855    -0.3235    -0.9216 H       
  37 H37            0.5098    -0.3441     0.8581 H       
  38 H38           -1.9626    -0.1582     0.8940 H       
  39 H39           -1.9869    -0.1375    -0.8856 H       
  40 H40           -1.4432    -1.5946    -0.0199 H       
  41 H41            1.9216     0.0752     1.7427 H       
  42 H42            3.4279     0.5506     0.9223 H       
  43 H43            4.1894     1.6973     2.9848 H       
  44 H44            2.6831     1.2219     3.8052 H       
  45 H45            3.8507    -0.0219     3.2975 H       
  46 H46            9.6207    11.0545     4.1994 H       
  47 H47           10.7665     8.8778     4.5118 H       
  48 H48           12.0170     9.3685     3.3440 H       
  49 H49           11.8558    10.2335     4.8913 H       
  50 H50           10.3886    12.5809     2.4024 H       
  51 H51           11.6351    12.3959     3.6595 H       
  52 H52           11.7963    11.5310     2.1122 H       
@<TRIPOS>BOND
   1    1   20 1
   2    1   13 1
   3    2   22 1
   4    2   13 1
   5    3    4 ar
   6    3   24 1
   7    3    8 ar
   8    4    5 ar
   9    4   28 1
  10    5    6 ar
  11    5   29 1
  12    6    7 ar
  13    6   30 1
  14    7    8 ar
  15    7    9 1
  16    8   31 1
  17    9   10 am
  18    9   11 2
  19   10   12 1
  20   10   32 1
  21   12   16 2
  22   12   17 1
  23   13   14 2
  24   13   15 1
  25   15   19 1
  26   15   33 1
  27   15   34 1
  28   16   19 1
  29   17   18 1
  30   18   19 2
  31   18   35 1
  32   20   21 1
  33   20   36 1
  34   20   37 1
  35   21   38 1
  36   21   39 1
  37   21   40 1
  38   22   23 1
  39   22   41 1
  40   22   42 1
  41   23   43 1
  42   23   44 1
  43   23   45 1
  44   24   25 1
  45   25   26 1
  46   25   27 1
  47   25   46 1
  48   26   47 1
  49   26   48 1
  50   26   49 1
  51   27   50 1
  52   27   51 1
  53   27   52 1

#	End of record

