#	Name: ASD05860010
#	Creating user name:	WinNT
#	Creation time:	15. 06. 2019 21:04

#	Modifying user name:	WinNT
#	Modification time:	15. 06. 2019 21:04

#	Program:	/corina/corina34_cracker 3.40 0067  02.08.2006

@<TRIPOS>MOLECULE
ASD05860010
 178  184    0    0    0
SMALL
NO_CHARGES


@<TRIPOS>ATOM
   1 C1             0.8852    -6.9530     0.0178 C.2     
   2 O2            -0.1305    -7.6111     0.0953 O.2     
   3 C3             2.2218    -7.5957     0.2854 C.3     
   4 N4             0.8192    -5.6481    -0.3132 N.am    
   5 C5            -0.4796    -5.0248    -0.5793 C.3     
   6 C6            -1.1469    -5.7273    -1.7335 C.2     
   7 O7            -0.7984    -6.8462    -2.0457 O.2     
   8 C8            -1.3630    -5.1357     0.6649 C.3     
   9 C9            -0.7564    -4.3306     1.7851 C.2     
  10 C10            0.0512    -4.7915     2.7533 C.2     
  11 C11           -0.9311    -2.8953     2.0204 C.ar    
  12 C12           -0.1812    -2.5962     3.1723 C.ar    
  13 C13           -1.6385    -1.8838     1.3675 C.ar    
  14 N14            0.4033    -3.7698     3.5926 N.pl3   
  15 C15           -0.1566    -1.2895     3.6493 C.ar    
  16 C16           -1.5984    -0.6069     1.8518 C.ar    
  17 C17           -0.8641    -0.3076     2.9914 C.ar    
  18 N18           -2.1311    -5.1123    -2.4187 N.am    
  19 C19           -2.7799    -5.7953    -3.5407 C.3     
  20 C20           -4.1656    -5.2360    -3.7358 C.2     
  21 O21           -4.4684    -4.1759    -3.2303 O.2     
  22 C22           -1.9586    -5.5787    -4.8133 C.3     
  23 C23           -1.7811    -4.0786    -5.0566 C.3     
  24 O24           -0.6767    -6.1919    -4.6630 O.3     
  25 N25           -5.0684    -5.9138    -4.4721 N.am    
  26 C26           -6.4486    -5.4316    -4.5644 C.3     
  27 C27           -7.0708    -5.9311    -5.8428 C.2     
  28 O28           -6.4248    -6.6219    -6.6021 O.2     
  29 C29           -7.2512    -5.9508    -3.3698 C.3     
  30 C30           -6.7043    -5.3530    -2.0991 C.2     
  31 C31           -5.7991    -5.9105    -1.2794 C.2     
  32 C32           -7.0548    -4.0506    -1.5275 C.ar    
  33 C33           -6.2980    -3.9274    -0.3482 C.ar    
  34 C34           -7.9177    -3.0224    -1.9121 C.ar    
  35 N35           -5.5457    -5.0741    -0.2266 N.pl3   
  36 C36           -6.4208    -2.7762     0.4234 C.ar    
  37 C37           -8.0225    -1.9004    -1.1397 C.ar    
  38 C38           -7.2784    -1.7743     0.0256 C.ar    
  39 N39           -8.3451    -5.6102    -6.1425 N.am    
  40 C40           -8.9844    -6.1817    -7.3303 C.3     
  41 C41           -9.5655    -7.5295    -6.9886 C.2     
  42 O42           -9.4564    -7.9694    -5.8636 O.2     
  43 C43          -10.1013    -5.2505    -7.8061 C.3     
  44 C44           -9.5084    -3.9330    -8.2345 C.2     
  45 N45          -10.3163    -2.9125    -8.5845 N.am    
  46 O46           -8.3044    -3.7909    -8.2645 O.2     
  47 N47          -10.2066    -8.2461    -7.9331 N.am    
  48 C48          -10.7715    -9.5563    -7.6009 C.3     
  49 C49          -11.9039    -9.8690    -8.5448 C.2     
  50 O50          -12.2090    -9.0756    -9.4098 O.2     
  51 C51           -9.6870   -10.6275    -7.7327 C.3     
  52 N52          -12.5775   -11.0305    -8.4277 N.am    
  53 C53          -13.6784   -11.3345    -9.3453 C.3     
  54 C54          -14.6271   -12.3034    -8.6881 C.2     
  55 O55          -14.4056   -12.7009    -7.5639 O.2     
  56 C56          -13.1180   -11.9581   -10.6252 C.3     
  57 C57          -12.2662   -10.9454   -11.3462 C.ar    
  58 C58          -10.9139   -10.8598   -11.0708 C.ar    
  59 C59          -12.8371   -10.1072   -12.2860 C.ar    
  60 C60          -10.1308    -9.9324   -11.7304 C.ar    
  61 C61          -12.0583    -9.1783   -12.9486 C.ar    
  62 C62          -10.7024    -9.0864   -12.6697 C.ar    
  63 O63           -9.9342    -8.1731   -13.3199 O.3     
  64 N64          -15.7218   -12.7283    -9.3496 N.am    
  65 C65          -16.6442   -13.6703    -8.7106 C.3     
  66 C66          -17.3860   -14.4438    -9.7701 C.2     
  67 O67          -17.1659   -14.2294   -10.9433 O.2     
  68 C68          -17.6448   -12.8986    -7.8480 C.3     
  69 N69          -18.2940   -15.3739    -9.4138 N.am    
  70 C70          -19.0151   -16.1259   -10.4437 C.3     
  71 C71          -19.4677   -17.4469    -9.8769 C.2     
  72 O72          -19.2129   -17.7321    -8.7259 O.2     
  73 C73          -20.2342   -15.3230   -10.9018 C.3     
  74 C74          -19.7763   -14.0572   -11.5795 C.ar    
  75 C75          -19.5467   -14.0472   -12.9426 C.ar    
  76 C76          -19.5914   -12.9047   -10.8389 C.ar    
  77 C77          -19.1266   -12.8861   -13.5642 C.ar    
  78 C78          -19.1714   -11.7436   -11.4606 C.ar    
  79 C79          -18.9367   -11.7350   -12.8228 C.ar    
  80 N80          -20.1555   -18.3113   -10.6489 N.am    
  81 C81          -20.5955   -19.5954   -10.0979 C.3     
  82 C82          -21.7973   -20.0854   -10.8638 C.2     
  83 O83          -22.2425   -19.4268   -11.7797 O.2     
  84 C84          -19.4628   -20.6170   -10.2183 C.3     
  85 N85          -22.3774   -21.2555   -10.5309 N.am    
  86 C86          -23.5458   -21.7318   -11.2754 C.3     
  87 C87          -23.6319   -23.2325   -11.1686 C.2     
  88 O88          -23.1702   -23.7991   -10.2007 O.2     
  89 C89          -24.8133   -21.1053   -10.6906 C.3     
  90 N90          -24.2220   -23.9451   -12.1487 N.am    
  91 C91          -24.2898   -25.4160   -12.2199 C.3     
  92 C92          -24.4756   -25.9998   -10.8430 C.2     
  93 O93          -23.6530   -26.7614   -10.3941 O.2     
  94 C94          -25.5272   -25.7136   -13.1031 C.3     
  95 C95          -25.4453   -24.5707   -14.1493 C.3     
  96 C96          -24.9102   -23.3841   -13.3205 C.3     
  97 H97            2.6260    -7.9945    -0.6450 H       
  98 H98            2.9080    -6.8520     0.6905 H       
  99 H99            2.0980    -8.4056     1.0044 H       
 100 H100           1.6316    -5.1218    -0.3752 H       
 101 H101          -0.3338    -3.9738    -0.8289 H       
 102 H102          -2.3581    -4.7522     0.4394 H       
 103 H103          -1.4361    -6.1805     0.9667 H       
 104 H104           0.3749    -5.8168     2.8548 H       
 105 H105          -2.2150    -2.1100     0.4827 H       
 106 H106           0.9784    -3.8592     4.3686 H       
 107 H107           0.4149    -1.0458     4.5328 H       
 108 H108          -2.1457     0.1751     1.3464 H       
 109 H109          -0.8440     0.7061     3.3635 H       
 110 H110          -2.4099    -4.2174    -2.1689 H       
 111 H111          -2.8454    -6.8622    -3.3277 H       
 112 H112          -2.4779    -6.0253    -5.6612 H       
 113 H113          -1.2618    -3.6320    -4.2086 H       
 114 H114          -1.1960    -3.9243    -5.9632 H       
 115 H115          -2.7589    -3.6109    -5.1712 H       
 116 H116          -0.7073    -7.1561    -4.5960 H       
 117 H117          -4.8042    -6.7208    -4.9408 H       
 118 H118          -6.4538    -4.3416    -4.5595 H       
 119 H119          -8.2974    -5.6669    -3.4839 H       
 120 H120          -7.1725    -7.0370    -3.3236 H       
 121 H121          -5.3394    -6.8763    -1.4287 H       
 122 H122          -8.4999    -3.1136    -2.8172 H       
 123 H123          -4.9267    -5.2605     0.4966 H       
 124 H124          -5.8460    -2.6686     1.3313 H       
 125 H125          -8.6901    -1.1054    -1.4376 H       
 126 H126          -7.3722    -0.8813     0.6257 H       
 127 H127          -8.8388    -5.0009    -5.5716 H       
 128 H128          -8.2441    -6.2954    -8.1222 H       
 129 H129         -10.6202    -5.7068    -8.6491 H       
 130 H130         -10.8069    -5.0839    -6.9921 H       
 131 H131         -11.2793    -3.0261    -8.5605 H       
 132 H132          -9.9347    -2.0644    -8.8602 H       
 133 H133         -10.2939    -7.8942    -8.8328 H       
 134 H134         -11.1453    -9.5418    -6.5771 H       
 135 H135          -9.3132   -10.6420    -8.7565 H       
 136 H136          -8.8680   -10.4013    -7.0500 H       
 137 H137         -10.1074   -11.6024    -7.4856 H       
 138 H138         -12.3335   -11.6651    -7.7359 H       
 139 H139         -14.2104   -10.4156    -9.5916 H       
 140 H140         -12.5118   -12.8274   -10.3705 H       
 141 H141         -13.9412   -12.2655   -11.2701 H       
 142 H142         -10.4695   -11.5184   -10.3393 H       
 143 H143         -13.8927   -10.1789   -12.5025 H       
 144 H144          -9.0747    -9.8657   -11.5147 H       
 145 H145         -12.5045    -8.5243   -13.6831 H       
 146 H146          -9.8821    -7.3156   -12.8760 H       
 147 H147         -15.8990   -12.4104   -10.2487 H       
 148 H148         -16.0810   -14.3614    -8.0835 H       
 149 H149         -18.2080   -12.2074    -8.4752 H       
 150 H150         -18.3311   -13.5994    -7.3726 H       
 151 H151         -17.1083   -12.3391    -7.0817 H       
 152 H152         -18.4700   -15.5454    -8.4754 H       
 153 H153         -18.3557   -16.3020   -11.2936 H       
 154 H154         -20.8195   -15.9188   -11.6022 H       
 155 H155         -20.8487   -15.0706   -10.0376 H       
 156 H156         -19.6951   -14.9465   -13.5218 H       
 157 H157         -19.7755   -12.9113    -9.7748 H       
 158 H158         -18.9465   -12.8785   -14.6291 H       
 159 H159         -19.0273   -10.8431   -10.8820 H       
 160 H160         -18.6085   -10.8279   -13.3085 H       
 161 H161         -20.3592   -18.0832   -11.5695 H       
 162 H162         -20.8604   -19.4687    -9.0482 H       
 163 H163         -18.5935   -20.2626    -9.6643 H       
 164 H164         -19.7902   -21.5724    -9.8083 H       
 165 H165         -19.1978   -20.7437   -11.2679 H       
 166 H166         -22.0214   -21.7822    -9.7983 H       
 167 H167         -23.4498   -21.4470   -12.3231 H       
 168 H168         -24.9553   -21.4586    -9.6693 H       
 169 H169         -24.7147   -20.0198   -10.6892 H       
 170 H170         -25.6728   -21.3913   -11.2968 H       
 171 H171         -23.3870   -25.8155   -12.6819 H       
 172 H172         -25.3444   -25.7370   -10.2578 H       
 173 H173         -25.4398   -26.6888   -13.5822 H       
 174 H174         -26.4471   -25.6464   -12.5223 H       
 175 H175         -24.7528   -24.8299   -14.9502 H       
 176 H176         -26.4330   -24.3436   -14.5504 H       
 177 H177         -25.7375   -22.7523   -12.9973 H       
 178 H178         -24.2089   -22.8027   -13.9191 H       
@<TRIPOS>BOND
   1    1    2 2
   2    1    3 1
   3    1    4 am
   4    3   97 1
   5    3   98 1
   6    3   99 1
   7    4    5 1
   8    4  100 1
   9    5    8 1
  10    5    6 1
  11    5  101 1
  12    6    7 2
  13    6   18 am
  14    8    9 1
  15    8  102 1
  16    8  103 1
  17    9   10 2
  18    9   11 1
  19   10   14 1
  20   10  104 1
  21   11   12 ar
  22   11   13 ar
  23   12   14 1
  24   12   15 ar
  25   13   16 ar
  26   13  105 1
  27   14  106 1
  28   15   17 ar
  29   15  107 1
  30   16   17 ar
  31   16  108 1
  32   17  109 1
  33   18   19 1
  34   18  110 1
  35   19   20 1
  36   19   22 1
  37   19  111 1
  38   20   21 2
  39   20   25 am
  40   22   23 1
  41   22   24 1
  42   22  112 1
  43   23  113 1
  44   23  114 1
  45   23  115 1
  46   24  116 1
  47   25   26 1
  48   25  117 1
  49   26   29 1
  50   26   27 1
  51   26  118 1
  52   27   39 am
  53   27   28 2
  54   29   30 1
  55   29  119 1
  56   29  120 1
  57   30   31 2
  58   30   32 1
  59   31   35 1
  60   31  121 1
  61   32   33 ar
  62   32   34 ar
  63   33   35 1
  64   33   36 ar
  65   34   37 ar
  66   34  122 1
  67   35  123 1
  68   36   38 ar
  69   36  124 1
  70   37   38 ar
  71   37  125 1
  72   38  126 1
  73   39   40 1
  74   39  127 1
  75   40   43 1
  76   40   41 1
  77   40  128 1
  78   41   42 2
  79   41   47 am
  80   43   44 1
  81   43  129 1
  82   43  130 1
  83   44   45 am
  84   44   46 2
  85   45  131 1
  86   45  132 1
  87   47   48 1
  88   47  133 1
  89   48   51 1
  90   48   49 1
  91   48  134 1
  92   49   52 am
  93   49   50 2
  94   51  135 1
  95   51  136 1
  96   51  137 1
  97   52   53 1
  98   52  138 1
  99   53   54 1
 100   53   56 1
 101   53  139 1
 102   54   64 am
 103   54   55 2
 104   56   57 1
 105   56  140 1
 106   56  141 1
 107   57   58 ar
 108   57   59 ar
 109   58   60 ar
 110   58  142 1
 111   59   61 ar
 112   59  143 1
 113   60   62 ar
 114   60  144 1
 115   61   62 ar
 116   61  145 1
 117   62   63 1
 118   63  146 1
 119   64   65 1
 120   64  147 1
 121   65   68 1
 122   65   66 1
 123   65  148 1
 124   66   67 2
 125   66   69 am
 126   68  149 1
 127   68  150 1
 128   68  151 1
 129   69   70 1
 130   69  152 1
 131   70   73 1
 132   70   71 1
 133   70  153 1
 134   71   80 am
 135   71   72 2
 136   73   74 1
 137   73  154 1
 138   73  155 1
 139   74   75 ar
 140   74   76 ar
 141   75   77 ar
 142   75  156 1
 143   76   78 ar
 144   76  157 1
 145   77   79 ar
 146   77  158 1
 147   78   79 ar
 148   78  159 1
 149   79  160 1
 150   80   81 1
 151   80  161 1
 152   81   84 1
 153   81   82 1
 154   81  162 1
 155   82   83 2
 156   82   85 am
 157   84  163 1
 158   84  164 1
 159   84  165 1
 160   85   86 1
 161   85  166 1
 162   86   89 1
 163   86   87 1
 164   86  167 1
 165   87   90 am
 166   87   88 2
 167   89  168 1
 168   89  169 1
 169   89  170 1
 170   90   96 1
 171   90   91 1
 172   91   92 1
 173   91   94 1
 174   91  171 1
 175   92   93 2
 176   92  172 1
 177   94   95 1
 178   94  173 1
 179   94  174 1
 180   95   96 1
 181   95  175 1
 182   95  176 1
 183   96  177 1
 184   96  178 1

#	End of record

