#	Name: ASD02562005
#	Creating user name:	WinNT
#	Creation time:	15. 06. 2019 20:25

#	Modifying user name:	WinNT
#	Modification time:	15. 06. 2019 20:25

#	Program:	/corina/corina34_cracker 3.40 0067  02.08.2006

@<TRIPOS>MOLECULE
ASD02562005
  66   69    0    0    0
SMALL
NO_CHARGES


@<TRIPOS>ATOM
   1 C1            -0.0167     1.3825     0.0096 C.ar    
   2 C2             0.0021    -0.0041     0.0020 C.ar    
   3 C3            -1.1802    -0.7145     0.0100 C.ar    
   4 C4            -2.4035    -0.0430     0.0253 C.ar    
   5 C5            -2.4340     1.3479     0.0330 C.ar    
   6 C6            -1.2402     2.0663     0.0309 C.ar    
   7 C7             1.3186    -0.7372    -0.0155 C.3     
   8 C8            -1.2639     3.5427     0.0395 C.2     
   9 C9            -3.6712    -0.8123     0.0328 C.2     
  10 C10           -4.5974    -0.7263    -1.1219 C.ar    
  11 C11           -3.9794    -1.5843     1.0819 C.2     
  12 C12           -3.0380    -1.6716     2.2555 C.3     
  13 C13           -3.7886    -1.3119     3.5393 C.3     
  14 C14           -2.8329    -1.4006     4.7307 C.3     
  15 C15           -3.5722    -1.0462     5.9952 C.2     
  16 C16           -5.8618    -0.1640    -0.9614 C.ar    
  17 C17           -6.7207    -0.0867    -2.0437 C.ar    
  18 C18           -6.3222    -0.5699    -3.2910 C.ar    
  19 C19           -5.0621    -1.1296    -3.4465 C.ar    
  20 C20           -4.2014    -1.2033    -2.3722 C.ar    
  21 C21           -4.6313    -1.6515    -4.7930 C.3     
  22 O22           -7.3519    -0.3649    -4.1490 O.3     
  23 C23           -8.3646     0.2208    -3.4912 C.2     
  24 N24           -8.0160     0.4065    -2.2027 N.am    
  25 O25           -9.4316     0.5358    -3.9821 O.2     
  26 C26           -8.8455     1.0152    -1.1598 C.3     
  27 F27           -2.4445     4.1993     0.0496 F       
  28 N28           -0.1517     4.2088     0.0375 N.2     
  29 N29           -4.2143    -1.8750     6.7828 N.2     
  30 C30           -4.7124    -1.1177     7.7764 C.2     
  31 N31           -4.3545     0.1102     7.5467 N.2     
  32 O32           -3.6938     0.1719     6.5312 O.3     
  33 C33           -5.5349    -1.6038     8.9418 C.3     
  34 O34            1.1493     2.0773     0.0022 O.3     
  35 C35            1.6944     2.4163    -1.2745 C.3     
  36 O36           -0.1744     5.6246     0.0458 O.3     
  37 C37            1.1216     6.2267     0.0424 C.3     
  38 H38           -1.1591    -1.7942     0.0040 H       
  39 H39           -3.3799     1.8690     0.0449 H       
  40 H40            1.6467    -0.9194     1.0078 H       
  41 H41            1.1977    -1.6887    -0.5332 H       
  42 H42            2.0637    -0.1336    -0.5338 H       
  43 H43           -4.9027    -2.1445     1.0874 H       
  44 H44           -2.6490    -2.6868     2.3344 H       
  45 H45           -2.2114    -0.9760     2.1108 H       
  46 H46           -4.1776    -0.2967     3.4603 H       
  47 H47           -4.6152    -2.0075     3.6839 H       
  48 H48           -2.4439    -2.4157     4.8097 H       
  49 H49           -2.0063    -0.7050     4.5860 H       
  50 H50           -6.1705     0.2096     0.0037 H       
  51 H51           -3.2211    -1.6391    -2.4965 H       
  52 H52           -4.1460    -0.8528    -5.3540 H       
  53 H53           -3.9319    -2.4762    -4.6563 H       
  54 H54           -5.5045    -2.0029    -5.3428 H       
  55 H55           -8.6701     2.0907    -1.1375 H       
  56 H56           -9.8969     0.8228    -1.3734 H       
  57 H57           -8.5867     0.5847    -0.1924 H       
  58 H58           -4.8742    -1.8700     9.7669 H       
  59 H59           -6.2150    -0.8141     9.2611 H       
  60 H60           -6.1104    -2.4791     8.6404 H       
  61 H61            2.6240     2.9687    -1.1376 H       
  62 H62            1.8930     1.5048    -1.8383 H       
  63 H63            0.9820     3.0339    -1.8214 H       
  64 H64            1.0181     7.3117     0.0492 H       
  65 H65            1.6723     5.9086     0.9276 H       
  66 H66            1.6629     5.9189    -0.8523 H       
@<TRIPOS>BOND
   1    1    2 ar
   2    1   34 1
   3    1    6 ar
   4    2    3 ar
   5    2    7 1
   6    3    4 ar
   7    3   38 1
   8    4    5 ar
   9    4    9 1
  10    5    6 ar
  11    5   39 1
  12    6    8 1
  13    7   40 1
  14    7   41 1
  15    7   42 1
  16    8   27 1
  17    8   28 2
  18    9   10 1
  19    9   11 2
  20   10   16 ar
  21   10   20 ar
  22   11   12 1
  23   11   43 1
  24   12   13 1
  25   12   44 1
  26   12   45 1
  27   13   14 1
  28   13   46 1
  29   13   47 1
  30   14   15 1
  31   14   48 1
  32   14   49 1
  33   15   29 2
  34   15   32 1
  35   16   17 ar
  36   16   50 1
  37   17   18 ar
  38   17   24 1
  39   18   19 ar
  40   18   22 1
  41   19   20 ar
  42   19   21 1
  43   20   51 1
  44   21   52 1
  45   21   53 1
  46   21   54 1
  47   22   23 1
  48   23   25 2
  49   23   24 am
  50   24   26 1
  51   26   55 1
  52   26   56 1
  53   26   57 1
  54   28   36 1
  55   29   30 1
  56   30   31 2
  57   30   33 1
  58   31   32 1
  59   33   58 1
  60   33   59 1
  61   33   60 1
  62   34   35 1
  63   35   61 1
  64   35   62 1
  65   35   63 1
  66   36   37 1
  67   37   64 1
  68   37   65 1
  69   37   66 1

#	End of record

