#	Name: ASD01880831
#	Creating user name:	WinNT
#	Creation time:	15. 06. 2019 19:41

#	Modifying user name:	WinNT
#	Modification time:	15. 06. 2019 19:41

#	Program:	/corina/corina34_cracker 3.40 0067  02.08.2006

@<TRIPOS>MOLECULE
ASD01880831
  56   58    0    0    0
SMALL
NO_CHARGES


@<TRIPOS>ATOM
   1 N1            -0.0166     1.3120     0.0180 N.ar    
   2 C2             0.0029    -0.0056     0.0035 C.ar    
   3 N3             1.1338    -0.6824    -0.0192 N.ar    
   4 C4             2.2990    -0.0554    -0.0287 C.ar    
   5 C5             2.3190     1.3305    -0.0145 C.ar    
   6 C6             1.1098     2.0070     0.0097 C.ar    
   7 C7             3.6243     2.0835    -0.0242 C.3     
   8 O8             4.0818     2.2265    -1.3704 O.3     
   9 C9             5.2531     2.8863    -1.5563 C.ar    
  10 C10            5.7560     3.0610    -2.8420 C.ar    
  11 C11            6.9407     3.7289    -3.0287 C.ar    
  12 C12            7.6474     4.2362    -1.9333 C.ar    
  13 C13            7.1377     4.0583    -0.6442 C.ar    
  14 C14            5.9463     3.3918    -0.4630 C.ar    
  15 C15            7.7445     4.0829    -4.2550 C.3     
  16 N16            8.9258     4.8090    -3.7750 N.am    
  17 C17            8.8658     4.8952    -2.4350 C.2     
  18 O18            9.6984     5.4399    -1.7363 O.2     
  19 C19            7.5156     6.0673     0.7595 C.3     
  20 C20            7.8885     4.5989     0.5454 C.3     
  21 C21            4.0030    -1.0877    -1.5051 C.3     
  22 C22            3.5868    -0.8376    -0.0542 C.3     
  23 C23            1.0777     3.5135     0.0254 C.3     
  24 F24            1.8099     4.0069    -1.0598 F       
  25 F25           -0.2473     3.9527    -0.0678 F       
  26 F26            1.6406     3.9795     1.2183 F       
  27 C27            9.6477     6.7841    -5.0236 C.3     
  28 C28            9.9950     5.3505    -4.6175 C.3     
  29 C29           -1.7644    -0.9978    -1.4251 C.3     
  30 C30           -1.3024    -0.7585     0.0137 C.3     
  31 H31            3.4782     3.0697     0.4166 H       
  32 H32            4.3657     1.5330     0.5549 H       
  33 H33            5.2152     2.6713    -3.6917 H       
  34 H34            5.5527     3.2549     0.5334 H       
  35 H35            8.0489     3.1764    -4.7781 H       
  36 H36            7.1572     4.7190    -4.9172 H       
  37 H37            7.7791     6.6422    -0.1283 H       
  38 H38            6.4436     6.1475     0.9394 H       
  39 H39            8.0587     6.4583     1.6199 H       
  40 H40            7.6250     4.0240     1.4332 H       
  41 H41            8.9605     4.5188     0.3655 H       
  42 H42            3.2235    -1.6546    -2.0141 H       
  43 H43            4.1475    -0.1333    -2.0113 H       
  44 H44            4.9345    -1.6534    -1.5235 H       
  45 H45            4.3663    -0.2707     0.4548 H       
  46 H46            3.4423    -1.7920     0.4520 H       
  47 H47            9.5423     7.3995    -4.1301 H       
  48 H48           10.4431     7.1870    -5.6505 H       
  49 H49            8.7101     6.7873    -5.5796 H       
  50 H50           10.9325     5.3473    -4.0616 H       
  51 H51           10.1003     4.7351    -5.5110 H       
  52 H52           -2.7085    -1.5424    -1.4178 H       
  53 H53           -1.9014    -0.0399    -1.9268 H       
  54 H54           -1.0123    -1.5816    -1.9559 H       
  55 H55           -1.1654    -1.7165     0.5154 H       
  56 H56           -2.0545    -0.1747     0.5444 H       
@<TRIPOS>BOND
   1    1    2 ar
   2    1    6 ar
   3    2    3 ar
   4    2   30 1
   5    3    4 ar
   6    4    5 ar
   7    4   22 1
   8    5    6 ar
   9    5    7 1
  10    6   23 1
  11    7    8 1
  12    7   31 1
  13    7   32 1
  14    8    9 1
  15    9   10 ar
  16    9   14 ar
  17   10   11 ar
  18   10   33 1
  19   11   12 ar
  20   11   15 1
  21   12   13 ar
  22   12   17 1
  23   13   14 ar
  24   13   20 1
  25   14   34 1
  26   15   16 1
  27   15   35 1
  28   15   36 1
  29   16   17 am
  30   16   28 1
  31   17   18 2
  32   19   20 1
  33   19   37 1
  34   19   38 1
  35   19   39 1
  36   20   40 1
  37   20   41 1
  38   21   22 1
  39   21   42 1
  40   21   43 1
  41   21   44 1
  42   22   45 1
  43   22   46 1
  44   23   24 1
  45   23   25 1
  46   23   26 1
  47   27   28 1
  48   27   47 1
  49   27   48 1
  50   27   49 1
  51   28   50 1
  52   28   51 1
  53   29   30 1
  54   29   52 1
  55   29   53 1
  56   29   54 1
  57   30   55 1
  58   30   56 1

#	End of record

