#	Name: ASD02039259
#	Creating user name:	WinNT
#	Creation time:	15. 06. 2019 20:17

#	Modifying user name:	WinNT
#	Modification time:	15. 06. 2019 20:17

#	Program:	/corina/corina34_cracker 3.40 0067  02.08.2006

@<TRIPOS>MOLECULE
ASD02039259
  44   47    0    0    0
SMALL
NO_CHARGES


@<TRIPOS>ATOM
   1 N1            -0.0160     1.3037    -0.0274 N.2     
   2 C2             0.0019    -0.0039    -0.0001 C.2     
   3 C3             1.3718    -0.3810     0.0198 C.2     
   4 C4             2.0347     0.7973     0.0011 C.2     
   5 O5             1.1031     1.7615    -0.0271 O.3     
   6 N6            -1.0991    -0.8547     0.0084 N.pl3   
   7 C7            -0.9158    -2.2379    -0.1060 C.ar    
   8 C8             0.1064    -2.7400    -0.9010 C.ar    
   9 C9             0.2868    -4.1043    -1.0129 C.ar    
  10 C10           -0.5530    -4.9736    -0.3319 C.ar    
  11 C11           -1.5743    -4.4731     0.4618 C.ar    
  12 C12           -1.7523    -3.1085     0.5797 C.ar    
  13 O13            4.0136     1.0223    -1.3338 O.3     
  14 C14            5.3522     1.1906    -1.5038 C.ar    
  15 C15            6.1809     1.3215    -0.3910 C.ar    
  16 C16            7.5278     1.4913    -0.5392 C.ar    
  17 C17            8.0893     1.5360    -1.8124 C.ar    
  18 C18            7.2607     1.4048    -2.9433 C.ar    
  19 C19            5.8828     1.2252    -2.7763 C.ar    
  20 C20            3.5294     0.9895     0.0102 C.3     
  21 O21           -0.3749    -6.3172    -0.4430 O.3     
  22 C22           -2.4863    -5.4184     1.2007 C.3     
  23 N23            9.3707     1.6905    -2.2785 N.pl3   
  24 N24            9.3552     1.6579    -3.6766 N.2     
  25 C25            8.1370     1.4919    -4.1069 C.2     
  26 C26            0.6960    -6.7629    -1.2775 C.3     
  27 F27            0.4933    -6.3014    -2.5826 F       
  28 F28            1.9075    -6.2623    -0.7887 F       
  29 H29            1.7871    -1.3777     0.0441 H       
  30 H30           -1.9937    -0.4894     0.0935 H       
  31 H31            0.7598    -2.0634    -1.4318 H       
  32 H32            1.0816    -4.4949    -1.6310 H       
  33 H33           -2.5474    -2.7189     1.1981 H       
  34 H34            5.7530     1.2885     0.6000 H       
  35 H35            8.1580     1.5914     0.3321 H       
  36 H36            5.2390     1.1235    -3.6374 H       
  37 H37            3.7718     1.9291     0.5068 H       
  38 H38            3.9986     0.1640     0.5455 H       
  39 H39           -2.0703    -5.6287     2.1860 H       
  40 H40           -3.4699    -4.9621     1.3115 H       
  41 H41           -2.5782    -6.3480     0.6391 H       
  42 H42           10.1604     1.8041    -1.7268 H       
  43 H43            7.8303     1.4293    -5.1405 H       
  44 H44            0.7269    -7.8524    -1.2781 H       
@<TRIPOS>BOND
   1    1    2 2
   2    1    5 1
   3    2    3 1
   4    2    6 1
   5    3    4 2
   6    3   29 1
   7    4    5 1
   8    4   20 1
   9    6    7 1
  10    6   30 1
  11    7    8 ar
  12    7   12 ar
  13    8    9 ar
  14    8   31 1
  15    9   10 ar
  16    9   32 1
  17   10   11 ar
  18   10   21 1
  19   11   12 ar
  20   11   22 1
  21   12   33 1
  22   13   14 1
  23   13   20 1
  24   14   15 ar
  25   14   19 ar
  26   15   16 ar
  27   15   34 1
  28   16   17 ar
  29   16   35 1
  30   17   18 ar
  31   17   23 1
  32   18   19 ar
  33   18   25 1
  34   19   36 1
  35   20   37 1
  36   20   38 1
  37   21   26 1
  38   22   39 1
  39   22   40 1
  40   22   41 1
  41   23   24 1
  42   23   42 1
  43   24   25 2
  44   25   43 1
  45   26   27 1
  46   26   28 1
  47   26   44 1

#	End of record

