#	Name: ASD01882934
#	Creating user name:	WinNT
#	Creation time:	15. 06. 2019 19:45

#	Modifying user name:	WinNT
#	Modification time:	15. 06. 2019 19:45

#	Program:	/corina/corina34_cracker 3.40 0067  02.08.2006

@<TRIPOS>MOLECULE
ASD01882934
  18   17    0    0    0
SMALL
NO_CHARGES


@<TRIPOS>ATOM
   1 C1            -0.0179     1.4678     0.0101 C.3     
   2 C2             0.0021    -0.0041     0.0020 C.1     
   3 C3             0.0180    -1.1779    -0.0044 C.1     
   4 C4             0.0380    -2.6498    -0.0125 C.3     
   5 O5             1.3227     1.9624    -0.0000 O.3     
   6 O6            -1.3027    -3.1444    -0.0024 O.3     
   7 C7            -1.3962    -4.5703    -0.0092 C.3     
   8 C8            -2.8689    -4.9849     0.0027 C.3     
   9 H9            -0.5451     1.8289    -0.8729 H       
  10 H10           -0.5281     1.8193     0.9069 H       
  11 H11            0.5481    -3.0013    -0.9093 H       
  12 H12            0.5651    -3.0109     0.8705 H       
  13 H13            1.3860     2.9273     0.0045 H       
  14 H14           -0.9157    -4.9617    -0.9059 H       
  15 H15           -0.8987    -4.9713     0.8740 H       
  16 H16           -3.3663    -4.5840    -0.8805 H       
  17 H17           -2.9402    -6.0726    -0.0025 H       
  18 H18           -3.3493    -4.5936     0.8994 H       
@<TRIPOS>BOND
   1    1    2 1
   2    1    5 1
   3    1    9 1
   4    1   10 1
   5    2    3 3
   6    3    4 1
   7    4    6 1
   8    4   11 1
   9    4   12 1
  10    5   13 1
  11    6    7 1
  12    7    8 1
  13    7   14 1
  14    7   15 1
  15    8   16 1
  16    8   17 1
  17    8   18 1

#	End of record

