#	Name: ASD04590695
#	Creating user name:	WinNT
#	Creation time:	15. 06. 2019 20:51

#	Modifying user name:	WinNT
#	Modification time:	15. 06. 2019 20:51

#	Program:	/corina/corina34_cracker 3.40 0067  02.08.2006

@<TRIPOS>MOLECULE
ASD04590695
  73   78    0    0    0
SMALL
NO_CHARGES


@<TRIPOS>ATOM
   1 N1            -2.3782    -2.7057     0.0202 N.ar    
   2 C2            -1.2117    -2.0737     0.0039 C.ar    
   3 N3            -0.0572    -2.7202    -0.0183 N.ar    
   4 C4            -0.0258    -4.0492    -0.0246 C.ar    
   5 C5            -1.2485    -4.7500    -0.0072 C.ar    
   6 C6            -2.4369    -4.0273     0.0154 C.ar    
   7 N7             0.9980    -4.9648    -0.0454 N.pl3   
   8 C8             0.4978    -6.2496    -0.0424 C.ar    
   9 C9            -0.9072    -6.1785    -0.0187 C.ar    
  10 N10           -1.2019    -0.6887     0.0098 N.pl3   
  11 C11           -2.4013     0.0176    -0.0802 C.ar    
  12 C12            2.4226    -4.6237    -0.0676 C.3     
  13 C13            2.7460    -3.7924    -1.3214 C.3     
  14 C14            1.1003    -7.5149    -0.0575 C.ar    
  15 N15            0.3535    -8.6129    -0.0501 N.ar    
  16 C16           -0.9629    -8.5695    -0.0281 C.ar    
  17 C17           -1.6394    -7.3637    -0.0111 C.ar    
  18 C18            3.2826    -2.4345    -0.8235 C.3     
  19 C19            3.8151    -2.7352     0.5995 C.3     
  20 C20            2.7739    -3.7420     1.1485 C.3     
  21 N21           -3.5340    -0.6389    -0.2721 N.ar    
  22 C22           -4.6918    -0.0123    -0.3630 C.ar    
  23 C23           -4.7606     1.3688    -0.2594 C.ar    
  24 C24           -3.5875     2.0944    -0.0570 C.ar    
  25 C25           -2.3936     1.4031     0.0385 C.ar    
  26 N26           -5.9926     2.0264    -0.3574 N.3     
  27 C27           -7.0854     1.0679    -0.5694 C.3     
  28 C28           -8.4277     1.8030    -0.4900 C.3     
  29 N29           -8.3987     2.9316    -1.4327 N.am    
  30 C30           -7.2597     3.8601    -1.3718 C.3     
  31 C31           -5.9634     3.0440    -1.4164 C.3     
  32 C32            2.5279    -7.6241    -0.0817 C.1     
  33 N33            3.6605    -7.7108    -0.1008 N.1     
  34 O34           -9.3449     4.1492    -3.1837 O.3     
  35 C35          -10.4458     4.2792    -4.1214 C.3     
  36 C36          -11.7572     4.4377    -3.3494 C.3     
  37 C37          -10.2217     5.5087    -5.0039 C.3     
  38 C38          -10.5187     3.0280    -4.9990 C.3     
  39 C39           -9.3894     3.1099    -2.3290 C.2     
  40 O40          -10.3227     2.3327    -2.3656 O.2     
  41 H41           -3.3896    -4.5357     0.0295 H       
  42 H42           -0.3610    -0.2099     0.0766 H       
  43 H43            3.0240    -5.5327    -0.0569 H       
  44 H44            3.5051    -4.2975    -1.9188 H       
  45 H45            1.8430    -3.6427    -1.9134 H       
  46 H46           -1.5239    -9.4923    -0.0233 H       
  47 H47           -2.7190    -7.3410     0.0064 H       
  48 H48            4.0898    -2.0842    -1.4668 H       
  49 H49            2.4794    -1.6987    -0.7827 H       
  50 H50            4.8048    -3.1896     0.5536 H       
  51 H51            3.8327    -1.8290     1.2050 H       
  52 H52            1.8886    -3.2174     1.5078 H       
  53 H53            3.2098    -4.3459     1.9443 H       
  54 H54           -5.5960    -0.5816    -0.5202 H       
  55 H55           -3.6110     3.1709     0.0271 H       
  56 H56           -1.4659     1.9332     0.1956 H       
  57 H57           -6.9803     0.6078    -1.5519 H       
  58 H58           -7.0471     0.2966     0.1999 H       
  59 H59           -9.2348     1.1217    -0.7593 H       
  60 H60           -8.5818     2.1756     0.5226 H       
  61 H61           -7.2946     4.5388    -2.2240 H       
  62 H62           -7.3015     4.4305    -0.4439 H       
  63 H63           -5.1114     3.7059    -1.2614 H       
  64 H64           -5.8739     2.5564    -2.3871 H       
  65 H65          -11.7053     5.3290    -2.7242 H       
  66 H66          -12.5837     4.5352    -4.0533 H       
  67 H67          -11.9169     3.5617    -2.7207 H       
  68 H68           -9.2874     5.3958    -5.5539 H       
  69 H69          -11.0482     5.6063    -5.7078 H       
  70 H70          -10.1698     6.4001    -4.3787 H       
  71 H71          -10.6783     2.1520    -4.3703 H       
  72 H72          -11.3452     3.1255    -5.7029 H       
  73 H73           -9.5844     2.9150    -5.5490 H       
@<TRIPOS>BOND
   1    1    2 ar
   2    1    6 ar
   3    2    3 ar
   4    2   10 1
   5    3    4 ar
   6    4    5 ar
   7    4    7 1
   8    5    6 ar
   9    5    9 1
  10    6   41 1
  11    7    8 1
  12    7   12 1
  13    8    9 ar
  14    8   14 ar
  15    9   17 ar
  16   10   11 1
  17   10   42 1
  18   11   21 ar
  19   11   25 ar
  20   12   13 1
  21   12   20 1
  22   12   43 1
  23   13   18 1
  24   13   44 1
  25   13   45 1
  26   14   15 ar
  27   14   32 1
  28   15   16 ar
  29   16   17 ar
  30   16   46 1
  31   17   47 1
  32   18   19 1
  33   18   48 1
  34   18   49 1
  35   19   20 1
  36   19   50 1
  37   19   51 1
  38   20   52 1
  39   20   53 1
  40   21   22 ar
  41   22   23 ar
  42   22   54 1
  43   23   24 ar
  44   23   26 1
  45   24   25 ar
  46   24   55 1
  47   25   56 1
  48   26   27 1
  49   26   31 1
  50   27   28 1
  51   27   57 1
  52   27   58 1
  53   28   29 1
  54   28   59 1
  55   28   60 1
  56   29   30 1
  57   29   39 am
  58   30   31 1
  59   30   61 1
  60   30   62 1
  61   31   63 1
  62   31   64 1
  63   32   33 3
  64   34   35 1
  65   34   39 1
  66   35   36 1
  67   35   37 1
  68   35   38 1
  69   36   65 1
  70   36   66 1
  71   36   67 1
  72   37   68 1
  73   37   69 1
  74   37   70 1
  75   38   71 1
  76   38   72 1
  77   38   73 1
  78   39   40 2

#	End of record

