#	Name: ASD03740091
#	Creating user name:	WinNT
#	Creation time:	15. 06. 2019 20:46

#	Modifying user name:	WinNT
#	Modification time:	15. 06. 2019 20:46

#	Program:	/corina/corina34_cracker 3.40 0067  02.08.2006

@<TRIPOS>MOLECULE
ASD03740091
  59   63    0    0    0
SMALL
NO_CHARGES


@<TRIPOS>ATOM
   1 C1            -0.0168     1.3859     0.0097 C.ar    
   2 C2             0.0021    -0.0041     0.0020 C.ar    
   3 C3            -1.1619    -0.7194     0.0093 C.ar    
   4 C4            -2.3849    -0.0535     0.0245 C.ar    
   5 C5            -2.4062     1.3544     0.0323 C.ar    
   6 C6            -1.2020     2.0651     0.0303 C.ar    
   7 N7            -3.6913    -0.4692     0.0352 N.pl3   
   8 N8            -4.5293     0.6505     0.0495 N.2     
   9 C9            -3.8160     1.7436     0.0483 C.2     
  10 O10           -4.2970     3.0149     0.0603 O.3     
  11 C11           -4.1384    -1.8643     0.0317 C.3     
  12 C12           -5.7173     3.1711     0.0751 C.3     
  13 C13           -6.0665     4.6607     0.0870 C.3     
  14 C14           -7.5872     4.8280     0.1028 C.3     
  15 N15           -7.9224     6.2582     0.1143 N.3     
  16 C16           -9.3760     6.4661    -0.1111 C.3     
  17 C17           -7.6719     6.8530     1.4523 C.3     
  18 C18           -8.5378     8.1308     1.4783 C.3     
  19 C19           -9.6589     7.8763     0.4498 C.3     
  20 C20           -4.2775    -2.3508     1.4512 C.ar    
  21 C21           -5.4815    -2.2085     2.1155 C.ar    
  22 C22           -5.6097    -2.6545     3.4174 C.ar    
  23 C23           -4.5328    -3.2434     4.0558 C.ar    
  24 C24           -3.3281    -3.3856     3.3905 C.ar    
  25 C25           -3.2028    -2.9443     2.0866 C.ar    
  26 Cl26          -4.6929    -3.8033     5.6912 Cl      
  27 Cl27           1.4792     2.2665     0.0001 Cl      
  28 C28           -9.6924     6.4129    -1.5836 C.ar    
  29 C29          -10.9644     6.0651    -1.9967 C.ar    
  30 C30          -11.2452     6.0191    -3.3539 C.ar    
  31 C31          -10.2314     6.3262    -4.2482 C.ar    
  32 C32           -8.9832     6.6655    -3.7608 C.ar    
  33 N33           -8.7536     6.7041    -2.4629 N.ar    
  34 H34            0.9482    -0.5247    -0.0102 H       
  35 H35           -1.1336    -1.7990     0.0029 H       
  36 H36           -1.2089     3.1451     0.0366 H       
  37 H37           -5.1019    -1.9358    -0.4729 H       
  38 H38           -3.4070    -2.4790    -0.4930 H       
  39 H39           -6.1434     2.7052    -0.8134 H       
  40 H40           -6.1259     2.6950     0.9664 H       
  41 H41           -5.6404     5.1267     0.9755 H       
  42 H42           -5.6578     5.1368    -0.8043 H       
  43 H43           -8.0133     4.3620    -0.7857 H       
  44 H44           -7.9958     4.3519     0.9942 H       
  45 H45           -9.9554     5.7171     0.4286 H       
  46 H46           -7.9846     6.1658     2.2385 H       
  47 H47           -6.6176     7.1059     1.5645 H       
  48 H48           -8.9618     8.2807     2.4712 H       
  49 H49           -7.9441     8.9965     1.1847 H       
  50 H50           -9.6155     8.6170    -0.3487 H       
  51 H51          -10.6332     7.9012     0.9378 H       
  52 H52           -6.3220    -1.7484     1.6172 H       
  53 H53           -6.5502    -2.5429     3.9364 H       
  54 H54           -2.4871    -3.8453     3.8883 H       
  55 H55           -2.2625    -3.0553     1.5671 H       
  56 H56          -11.7300     5.8316    -1.2716 H       
  57 H57          -12.2302     5.7502    -3.7058 H       
  58 H58          -10.4144     6.3002    -5.3122 H       
  59 H59           -8.1879     6.9057    -4.4509 H       
@<TRIPOS>BOND
   1    1    2 ar
   2    1   27 1
   3    1    6 ar
   4    2    3 ar
   5    2   34 1
   6    3    4 ar
   7    3   35 1
   8    4    5 ar
   9    4    7 1
  10    5    6 ar
  11    5    9 1
  12    6   36 1
  13    7    8 1
  14    7   11 1
  15    8    9 2
  16    9   10 1
  17   10   12 1
  18   11   20 1
  19   11   37 1
  20   11   38 1
  21   12   13 1
  22   12   39 1
  23   12   40 1
  24   13   14 1
  25   13   41 1
  26   13   42 1
  27   14   15 1
  28   14   43 1
  29   14   44 1
  30   15   16 1
  31   15   17 1
  32   16   28 1
  33   16   19 1
  34   16   45 1
  35   17   18 1
  36   17   46 1
  37   17   47 1
  38   18   19 1
  39   18   48 1
  40   18   49 1
  41   19   50 1
  42   19   51 1
  43   20   21 ar
  44   20   25 ar
  45   21   22 ar
  46   21   52 1
  47   22   23 ar
  48   22   53 1
  49   23   24 ar
  50   23   26 1
  51   24   25 ar
  52   24   54 1
  53   25   55 1
  54   28   29 ar
  55   28   33 ar
  56   29   30 ar
  57   29   56 1
  58   30   31 ar
  59   30   57 1
  60   31   32 ar
  61   31   58 1
  62   32   33 ar
  63   32   59 1

#	End of record

