#	Name: ASD01911617
#	Creating user name:	WinNT
#	Creation time:	15. 06. 2019 19:58

#	Modifying user name:	WinNT
#	Modification time:	15. 06. 2019 19:58

#	Program:	/corina/corina34_cracker 3.40 0067  02.08.2006

@<TRIPOS>MOLECULE
ASD01911617
  45   48    0    0    0
SMALL
NO_CHARGES


@<TRIPOS>ATOM
   1 N1            -0.0212     1.2476     0.5013 N.am    
   2 C2             0.0021    -0.0041     0.0020 C.2     
   3 C3             1.2748    -0.7187    -0.1246 C.2     
   4 C4             1.4470    -2.0747    -0.0500 C.2     
   5 S5             2.8518     0.0159    -0.4072 S.3     
   6 C6             3.5963    -1.5802    -0.3909 C.2     
   7 N7             2.6740    -2.4890    -0.1928 N.2     
   8 C8             4.9923    -1.8438    -0.5711 C.1     
   9 C9             6.1367    -2.0599    -0.7188 C.1     
  10 C10            7.5327    -2.3234    -0.8990 C.ar    
  11 C11            8.0097    -3.6374    -0.8661 C.ar    
  12 C12            9.3552    -3.8832    -1.0409 C.ar    
  13 C13           10.2329    -2.8333    -1.2481 C.ar    
  14 C14            9.7684    -1.5301    -1.2820 C.ar    
  15 C15            8.4248    -1.2686    -1.1146 C.ar    
  16 O16           -1.0343    -0.5407    -0.3437 O.2     
  17 C17            1.1973     1.8564     1.0522 C.3     
  18 C18            0.9044     2.3446     2.4747 C.3     
  19 C19           -0.3134     3.2674     2.4531 C.3     
  20 C20           -1.5375     2.5158     1.9321 C.3     
  21 C21           -1.2641     2.0312     0.4993 C.3     
  22 C22           -0.5924     3.7885     3.8743 C.3     
  23 C23           -0.5045     5.3283     3.7357 C.3     
  24 C24           -0.7298     5.5309     2.2155 C.3     
  25 O25           -0.0483     4.4053     1.6199 O.3     
  26 H26            0.6236    -2.7534     0.1160 H       
  27 H27            7.3261    -4.4576    -0.7038 H       
  28 H28            9.7252    -4.8975    -1.0157 H       
  29 H29           11.2857    -3.0321    -1.3836 H       
  30 H30           10.4595    -0.7160    -1.4437 H       
  31 H31            8.0638    -0.2511    -1.1412 H       
  32 H32            1.9967     1.1158     1.0773 H       
  33 H33            1.4974     2.7001     0.4308 H       
  34 H34            0.7007     1.4887     3.1182 H       
  35 H35            1.7673     2.8901     2.8569 H       
  36 H36           -1.7399     1.6599     2.5759 H       
  37 H37           -2.4000     3.1822     1.9308 H       
  38 H38           -1.1603     2.8903    -0.1635 H       
  39 H39           -2.0893     1.4042     0.1619 H       
  40 H40           -1.5887     3.4908     4.2013 H       
  41 H41            0.1635     3.4239     4.5699 H       
  42 H42           -1.2892     5.8164     4.3137 H       
  43 H43            0.4793     5.6902     4.0347 H       
  44 H44           -1.7934     5.5048     1.9784 H       
  45 H45           -0.2845     6.4687     1.8832 H       
@<TRIPOS>BOND
   1    1    2 am
   2    1   17 1
   3    1   21 1
   4    2    3 1
   5    2   16 2
   6    3    4 2
   7    3    5 1
   8    4    7 1
   9    4   26 1
  10    5    6 1
  11    6    7 2
  12    6    8 1
  13    8    9 3
  14    9   10 1
  15   10   11 ar
  16   10   15 ar
  17   11   12 ar
  18   11   27 1
  19   12   13 ar
  20   12   28 1
  21   13   14 ar
  22   13   29 1
  23   14   15 ar
  24   14   30 1
  25   15   31 1
  26   17   18 1
  27   17   32 1
  28   17   33 1
  29   18   19 1
  30   18   34 1
  31   18   35 1
  32   19   20 1
  33   19   22 1
  34   19   25 1
  35   20   21 1
  36   20   36 1
  37   20   37 1
  38   21   38 1
  39   21   39 1
  40   22   23 1
  41   22   40 1
  42   22   41 1
  43   23   24 1
  44   23   42 1
  45   23   43 1
  46   24   25 1
  47   24   44 1
  48   24   45 1

#	End of record

