#	Name: ASD00311176
#	Creating user name:	WinNT
#	Creation time:	15. 06. 2019 18:34

#	Modifying user name:	WinNT
#	Modification time:	15. 06. 2019 18:34

#	Program:	/corina/corina34_cracker 3.40 0067  02.08.2006

@<TRIPOS>MOLECULE
ASD00311176
  43   47    0    0    0
SMALL
NO_CHARGES


@<TRIPOS>ATOM
   1 C1            -0.0167     1.3778     0.0096 C.2     
   2 C2             0.0021    -0.0041     0.0020 C.2     
   3 C3             1.2585    -0.6766    -0.0140 C.2     
   4 C4             2.4315     0.0673    -0.0217 C.2     
   5 C5             2.3576     1.4751    -0.0134 C.2     
   6 N6             1.1651     2.0904     0.0022 N.am    
   7 C7            -1.3435    -0.5753     0.0123 C.2     
   8 C8            -2.3232     0.3268     0.0268 C.2     
   9 S9            -1.6791     1.9566     0.0358 S.3     
  10 O10            3.3826     2.1371    -0.0196 O.2     
  11 C11            3.7475    -0.6122    -0.0379 C.ar    
  12 C12            4.5929    -0.4749    -1.1387 C.ar    
  13 C13            5.8176    -1.1103    -1.1479 C.ar    
  14 C14            6.2076    -1.8824    -0.0682 C.ar    
  15 C15            5.3733    -2.0228     1.0264 C.ar    
  16 C16            4.1488    -1.3872     1.0501 C.ar    
  17 C17           -1.7256    -2.7080    -1.2010 C.ar    
  18 C18           -1.5961    -2.0352     0.0070 C.ar    
  19 C19           -1.7024    -2.7282     1.2226 C.ar    
  20 C20           -1.9329    -4.0672     1.2452 C.ar    
  21 C21           -2.0687    -4.7799     0.0408 C.ar    
  22 C22           -2.3070    -6.1659     0.0410 C.ar    
  23 C23           -2.4341    -6.8288    -1.1424 C.ar    
  24 C24           -2.3311    -6.1541    -2.3573 C.ar    
  25 C25           -2.1010    -4.8131    -2.3964 C.ar    
  26 C26           -1.9646    -4.0948    -1.1961 C.ar    
  27 Cl27          -2.4379    -7.0280     1.5421 Cl      
  28 O28           -1.6277    -2.0331    -2.3758 O.3     
  29 O29            1.3083    -2.0291    -0.0213 O.3     
  30 Cl30          -4.0153    -0.0609     0.0416 Cl      
  31 H31            1.1330     3.0598     0.0077 H       
  32 H32            4.2893     0.1273    -1.9823 H       
  33 H33            6.4729    -1.0051    -1.9999 H       
  34 H34            7.1672    -2.3779    -0.0800 H       
  35 H35            5.6831    -2.6271     1.8662 H       
  36 H36            3.5003    -1.4936     1.9072 H       
  37 H37           -1.5992    -2.1899     2.1532 H       
  38 H38           -2.0115    -4.5848     2.1897 H       
  39 H39           -2.6170    -7.8932    -1.1389 H       
  40 H40           -2.4351    -6.7033    -3.2814 H       
  41 H41           -2.0239    -4.3034    -3.3454 H       
  42 H42           -0.7283    -1.9844    -2.7276 H       
  43 H43            2.2055    -2.3896    -0.0322 H       
@<TRIPOS>BOND
   1    1    2 2
   2    1    6 1
   3    1    9 1
   4    2    3 1
   5    2    7 1
   6    3    4 2
   7    3   29 1
   8    4    5 1
   9    4   11 1
  10    5    6 am
  11    5   10 2
  12    6   31 1
  13    7    8 2
  14    7   18 1
  15    8    9 1
  16    8   30 1
  17   11   12 ar
  18   11   16 ar
  19   12   13 ar
  20   12   32 1
  21   13   14 ar
  22   13   33 1
  23   14   15 ar
  24   14   34 1
  25   15   16 ar
  26   15   35 1
  27   16   36 1
  28   17   18 ar
  29   17   26 ar
  30   17   28 1
  31   18   19 ar
  32   19   20 ar
  33   19   37 1
  34   20   21 ar
  35   20   38 1
  36   21   22 ar
  37   21   26 ar
  38   22   23 ar
  39   22   27 1
  40   23   24 ar
  41   23   39 1
  42   24   25 ar
  43   24   40 1
  44   25   26 ar
  45   25   41 1
  46   28   42 1
  47   29   43 1

#	End of record

