#	Name: ASD01230386
#	Creating user name:	WinNT
#	Creation time:	15. 06. 2019 19:14

#	Modifying user name:	WinNT
#	Modification time:	15. 06. 2019 19:14

#	Program:	/corina/corina34_cracker 3.40 0067  02.08.2006

@<TRIPOS>MOLECULE
ASD01230386
  48   51    0    0    0
SMALL
NO_CHARGES


@<TRIPOS>ATOM
   1 S1             0.5416     1.3942     0.8663 S.o2    
   2 N2             0.1959    -0.1036     0.2738 N.am    
   3 C3             1.0538    -0.8911    -0.2414 C.2     
   4 N4             2.3947    -0.6189    -0.3390 N.pl3   
   5 C5             3.0443     0.3450     0.5421 C.3     
   6 C6             2.2902     1.6751     0.4842 C.3     
   7 C7             0.6217    -2.2415    -0.7895 C.3     
   8 C8             1.7470    -3.2355    -0.4911 C.3     
   9 C9             3.0376    -2.8351    -1.1932 C.3     
  10 C10            3.1562    -1.3266    -1.3736 C.3     
  11 C11           -0.6487    -2.6870    -0.1122 C.ar    
  12 C12           -1.7870    -2.9166    -0.8628 C.ar    
  13 C13           -2.9529    -3.3245    -0.2445 C.ar    
  14 C14           -2.9810    -3.5043     1.1311 C.ar    
  15 C15           -1.8371    -3.2736     1.8820 C.ar    
  16 C16           -0.6724    -2.8708     1.2580 C.ar    
  17 O17           -4.1267    -3.9051     1.7419 O.3     
  18 C18           -4.3533    -5.2399     1.8606 C.ar    
  19 C19           -5.5602    -5.6979     2.3728 C.ar    
  20 C20           -5.7876    -7.0559     2.4918 C.ar    
  21 C21           -4.8145    -7.9577     2.1016 C.ar    
  22 C22           -3.6125    -7.5039     1.5914 C.ar    
  23 C23           -3.3819    -6.1473     1.4650 C.ar    
  24 C24           -2.5545    -8.4899     1.1679 C.3     
  25 F25           -3.0170    -9.7923     1.3849 F       
  26 F26           -2.2721    -8.3158    -0.1912 F       
  27 F27           -1.3921    -8.2770     1.9167 F       
  28 Cl28          -6.7814    -4.5659     2.8637 Cl      
  29 O29           -0.2790     2.2671     0.1022 O.2     
  30 O30            0.3556     1.2635     2.2690 O.2     
  31 H31            3.0358    -0.0335     1.5643 H       
  32 H32            4.0741     0.4966     0.2189 H       
  33 H33            2.3800     2.1005    -0.5153 H       
  34 H34            2.7151     2.3657     1.2127 H       
  35 H35            0.4644    -2.1718    -1.8658 H       
  36 H36            1.9204    -3.2662     0.5846 H       
  37 H37            1.4477    -4.2266    -0.8319 H       
  38 H38            3.8841    -3.1879    -0.6040 H       
  39 H39            3.0689    -3.3114    -2.1731 H       
  40 H40            2.7703    -1.0510    -2.3550 H       
  41 H41            4.2054    -1.0385    -1.3073 H       
  42 H42           -1.7646    -2.7765    -1.9335 H       
  43 H43           -3.8420    -3.5030    -0.8311 H       
  44 H44           -1.8565    -3.4125     2.9529 H       
  45 H45            0.2193    -2.6951     1.8415 H       
  46 H46           -6.7259    -7.4131     2.8900 H       
  47 H47           -4.9938    -9.0186     2.1960 H       
  48 H48           -2.4441    -5.7938     1.0625 H       
@<TRIPOS>BOND
   1    1    2 am
   2    1    6 1
   3    1   29 2
   4    1   30 2
   5    2    3 2
   6    3    4 1
   7    3    7 1
   8    4    5 1
   9    4   10 1
  10    5    6 1
  11    5   31 1
  12    5   32 1
  13    6   33 1
  14    6   34 1
  15    7    8 1
  16    7   11 1
  17    7   35 1
  18    8    9 1
  19    8   36 1
  20    8   37 1
  21    9   10 1
  22    9   38 1
  23    9   39 1
  24   10   40 1
  25   10   41 1
  26   11   12 ar
  27   11   16 ar
  28   12   13 ar
  29   12   42 1
  30   13   14 ar
  31   13   43 1
  32   14   15 ar
  33   14   17 1
  34   15   16 ar
  35   15   44 1
  36   16   45 1
  37   17   18 1
  38   18   19 ar
  39   18   23 ar
  40   19   20 ar
  41   19   28 1
  42   20   21 ar
  43   20   46 1
  44   21   22 ar
  45   21   47 1
  46   22   23 ar
  47   22   24 1
  48   23   48 1
  49   24   25 1
  50   24   26 1
  51   24   27 1

#	End of record

