#	Name: ASD01882462
#	Creating user name:	WinNT
#	Creation time:	15. 06. 2019 19:44

#	Modifying user name:	WinNT
#	Modification time:	15. 06. 2019 19:44

#	Program:	/corina/corina34_cracker 3.40 0067  02.08.2006

@<TRIPOS>MOLECULE
ASD01882462
  51   55    0    0    0
SMALL
NO_CHARGES


@<TRIPOS>ATOM
   1 C1            -0.0170     1.4050     0.0098 C.2     
   2 C2             0.0021    -0.0041     0.0020 C.2     
   3 C3             1.1991    -0.6521    -0.0129 C.2     
   4 C4             2.3930     0.0893    -0.0203 C.2     
   5 C5             2.3588     1.4383    -0.0123 C.2     
   6 N6             1.1665     2.1012     0.0022 N.pl3   
   7 N7            -0.4824     3.4846     0.0225 N.2     
   8 N8            -0.9895     2.3019     0.0186 N.2     
   9 C9             0.8240     3.4179     0.0121 C.2     
  10 C10            1.2438    -2.1584    -0.0209 C.3     
  11 N11            1.3656    -2.6373    -1.4043 N.3     
  12 C12            1.6496    -4.0787    -1.4395 C.3     
  13 C13            1.6899    -4.5526    -2.8943 C.3     
  14 N14            2.7183    -3.7981    -3.6242 N.3     
  15 C15            2.4343    -2.3567    -3.5890 C.3     
  16 C16            2.3940    -1.8828    -2.1342 C.3     
  17 C17            2.8344    -4.2545    -4.9425 C.ar    
  18 C18            2.6034    -3.3852    -6.0035 C.ar    
  19 C19            2.7192    -3.8389    -7.3043 C.ar    
  20 C20            3.0649    -5.1574    -7.5502 C.ar    
  21 C21            3.2950    -6.0233    -6.4952 C.ar    
  22 C22            3.1856    -5.5732    -5.1930 C.ar    
  23 F23            3.1773    -5.5991    -8.8220 F       
  24 F24            2.2658    -2.0993    -5.7632 F       
  25 C25            1.7759     4.5862     0.0100 C.3     
  26 C26            2.0856     4.9891    -1.4332 C.3     
  27 C27            2.9459     6.2357    -1.6495 C.3     
  28 C28            3.5319     4.8469    -1.9116 C.3     
  29 Cl29          -1.4832    -0.9027     0.0120 Cl      
  30 H30            3.3434    -0.4236    -0.0322 H       
  31 H31            3.2826     1.9976    -0.0178 H       
  32 H32            2.1017    -2.4995     0.5585 H       
  33 H33            0.3279    -2.5514     0.4204 H       
  34 H34            2.6131    -4.2711    -0.9676 H       
  35 H35            0.8677    -4.6166    -0.9034 H       
  36 H36            1.9291    -5.6156    -2.9240 H       
  37 H37            0.7180    -4.3851    -3.3584 H       
  38 H38            3.2161    -1.8187    -4.1251 H       
  39 H39            1.4708    -2.1642    -4.0610 H       
  40 H40            2.1548    -0.8198    -2.1045 H       
  41 H41            3.3659    -2.0503    -1.6701 H       
  42 H42            2.5398    -3.1650    -8.1290 H       
  43 H43            3.5644    -7.0509    -6.6899 H       
  44 H44            3.3694    -6.2489    -4.3707 H       
  45 H45            1.3200     5.4273     0.5322 H       
  46 H46            2.6998     4.3030     0.5143 H       
  47 H47            1.2942     4.7920    -2.1564 H       
  48 H48            2.7208     6.8585    -2.5153 H       
  49 H49            3.2913     6.7687    -0.7637 H       
  50 H50            4.2628     4.4662    -1.1982 H       
  51 H51            3.6923     4.5560    -2.9497 H       
@<TRIPOS>BOND
   1    1    2 1
   2    1    6 1
   3    1    8 2
   4    2    3 2
   5    2   29 1
   6    3    4 1
   7    3   10 1
   8    4    5 2
   9    4   30 1
  10    5    6 1
  11    5   31 1
  12    6    9 1
  13    7    8 1
  14    7    9 2
  15    9   25 1
  16   10   11 1
  17   10   32 1
  18   10   33 1
  19   11   12 1
  20   11   16 1
  21   12   13 1
  22   12   34 1
  23   12   35 1
  24   13   14 1
  25   13   36 1
  26   13   37 1
  27   14   15 1
  28   14   17 1
  29   15   16 1
  30   15   38 1
  31   15   39 1
  32   16   40 1
  33   16   41 1
  34   17   18 ar
  35   17   22 ar
  36   18   19 ar
  37   18   24 1
  38   19   20 ar
  39   19   42 1
  40   20   21 ar
  41   20   23 1
  42   21   22 ar
  43   21   43 1
  44   22   44 1
  45   25   26 1
  46   25   45 1
  47   25   46 1
  48   26   27 1
  49   26   28 1
  50   26   47 1
  51   27   28 1
  52   27   48 1
  53   27   49 1
  54   28   50 1
  55   28   51 1

#	End of record

