#	Name: ASD08070088
#	Creating user name:	WinNT
#	Creation time:	15. 06. 2019 21:14

#	Modifying user name:	WinNT
#	Modification time:	15. 06. 2019 21:14

#	Program:	/corina/corina34_cracker 3.40 0067  02.08.2006

@<TRIPOS>MOLECULE
ASD08070088
  43   43    0    0    0
SMALL
NO_CHARGES


@<TRIPOS>ATOM
   1 C1             0.5923     1.0547    -0.3527 C.ar    
   2 C2             0.4462    -0.3323    -0.3000 C.ar    
   3 C3             1.8516     1.6093    -0.4528 C.ar    
   4 C4             2.9681     0.7937    -0.5013 C.ar    
   5 C5             2.8303    -0.5821    -0.4495 C.ar    
   6 C6             1.5768    -1.1494    -0.3489 C.ar    
   7 C7             4.0520    -1.4627    -0.5030 C.3     
   8 C8             2.0113     3.1067    -0.5098 C.3     
   9 C9            -0.9002    -0.9335    -0.1922 C.2     
  10 N10           -1.0379    -2.2733    -0.1415 N.am    
  11 O11           -1.8829    -0.2195    -0.1494 O.2     
  12 C12           -2.3721    -2.8689    -0.0348 C.3     
  13 C13           -2.2632    -4.2511     0.6122 C.3     
  14 C14           -1.7446    -4.1046     2.0441 C.3     
  15 C15           -2.7793    -3.3566     2.8872 C.3     
  16 O16           -2.3514    -2.6399    -2.3797 O.2     
  17 C17           -2.9734    -3.0040    -1.4100 C.2     
  18 O18           -4.2001    -3.5286    -1.5575 O.3     
  19 C19           -4.7160    -3.6281    -2.9111 C.3     
  20 C20           -1.5043    -5.4914     2.6440 C.3     
  21 H21           -0.2787     1.6923    -0.3197 H       
  22 H22            3.9517     1.2328    -0.5804 H       
  23 H23            1.4705    -2.2234    -0.3086 H       
  24 H24            4.4144    -1.6432     0.5091 H       
  25 H25            3.7950    -2.4126    -0.9717 H       
  26 H26            4.8304    -0.9692    -1.0850 H       
  27 H27            2.1172     3.4996     0.5014 H       
  28 H28            2.8991     3.3555    -1.0911 H       
  29 H29            1.1330     3.5481    -0.9810 H       
  30 H30           -0.2537    -2.8431    -0.1757 H       
  31 H31           -3.0074    -2.2298     0.5784 H       
  32 H32           -3.2455    -4.7233     0.6281 H       
  33 H33           -1.5728    -4.8681     0.0371 H       
  34 H34           -0.8092    -3.5450     2.0363 H       
  35 H35           -3.7147    -3.9161     2.8951 H       
  36 H36           -2.4098    -3.2522     3.9074 H       
  37 H37           -2.9505    -2.3686     2.4599 H       
  38 H38           -4.0547    -4.2575    -3.5067 H       
  39 H39           -5.7131    -4.0680    -2.8885 H       
  40 H40           -4.7676    -2.6337    -3.3544 H       
  41 H41           -0.8341    -6.0564     1.9961 H       
  42 H42           -1.0534    -5.3873     3.6309 H       
  43 H43           -2.4542    -6.0187     2.7323 H       
@<TRIPOS>BOND
   1    1    2 ar
   2    1    3 ar
   3    1   21 1
   4    2    9 1
   5    2    6 ar
   6    3    4 ar
   7    3    8 1
   8    4    5 ar
   9    4   22 1
  10    5    6 ar
  11    5    7 1
  12    6   23 1
  13    7   24 1
  14    7   25 1
  15    7   26 1
  16    8   27 1
  17    8   28 1
  18    8   29 1
  19    9   10 am
  20    9   11 2
  21   10   12 1
  22   10   30 1
  23   12   13 1
  24   12   17 1
  25   12   31 1
  26   13   14 1
  27   13   32 1
  28   13   33 1
  29   14   15 1
  30   14   20 1
  31   14   34 1
  32   15   35 1
  33   15   36 1
  34   15   37 1
  35   16   17 2
  36   17   18 1
  37   18   19 1
  38   19   38 1
  39   19   39 1
  40   19   40 1
  41   20   41 1
  42   20   42 1
  43   20   43 1

#	End of record

