#	Name: ASD01883892
#	Creating user name:	WinNT
#	Creation time:	15. 06. 2019 19:47

#	Modifying user name:	WinNT
#	Modification time:	15. 06. 2019 19:47

#	Program:	/corina/corina34_cracker 3.40 0067  02.08.2006

@<TRIPOS>MOLECULE
ASD01883892
  53   56    0    0    0
SMALL
NO_CHARGES


@<TRIPOS>ATOM
   1 C1            -0.0164     1.3604     0.0095 C.ar    
   2 C2             0.0021    -0.0041     0.0020 C.ar    
   3 C3             1.2243    -0.6894    -0.0133 C.ar    
   4 C4             2.4295     0.0362    -0.0209 C.ar    
   5 C5             2.3945     1.4196    -0.0131 C.ar    
   6 C6             1.1747     2.0814     0.0020 C.ar    
   7 C7             1.2469    -2.1542    -0.0209 C.2     
   8 O8             2.3069    -2.7445    -0.0342 O.2     
   9 C9            -0.0463    -2.9278    -0.0122 C.3     
  10 O10            3.6183    -0.6160    -0.0353 O.3     
  11 O11            1.1427     3.4377     0.0091 O.3     
  12 C12           -0.1454     4.0561     0.0243 C.3     
  13 C13            0.0168     5.5544     0.0303 C.ar    
  14 C14            0.2568     7.6092     1.2356 C.ar    
  15 C15            0.1080     6.2349     1.2301 C.ar    
  16 C16            0.0800     6.2476    -1.1640 C.ar    
  17 C17            0.2287     7.6219    -1.1585 C.ar    
  18 C18            0.3138     8.3031     0.0413 C.ar    
  19 C19            3.6796     2.2067    -0.0207 C.3     
  20 C20            0.4760     9.8013     0.0473 C.3     
  21 C21            1.9424    10.1479     0.0279 C.ar    
  22 C22            2.6316    10.2941     1.2151 C.ar    
  23 C23            2.5967    10.3133    -1.1792 C.ar    
  24 C24            3.9427    10.6315    -1.2041 C.ar    
  25 C25            4.6399    10.7855    -0.0231 C.ar    
  26 C26            3.9870    10.6145     1.1957 C.ar    
  27 C27            4.7331    10.7735     2.4693 C.2     
  28 N28            6.0099    11.0733     2.6016 N.2     
  29 N29            6.2755    11.1198     3.8618 N.pl3   
  30 N30            5.2078    10.8592     4.5320 N.2     
  31 N31            4.2381    10.6460     3.7085 N.2     
  32 H32           -0.9608     1.8843     0.0168 H       
  33 H33           -0.9261    -0.5563     0.0083 H       
  34 H34           -0.6305    -2.6688    -0.8953 H       
  35 H35            0.1693    -3.9962    -0.0197 H       
  36 H36           -0.6132    -2.6778     0.8846 H       
  37 H37            3.9549    -0.8007    -0.9228 H       
  38 H38           -0.7036     3.7547    -0.8621 H       
  39 H39           -0.6870     3.7457     0.9178 H       
  40 H40            0.3277     8.1409     2.1730 H       
  41 H41            0.0627     5.6929     2.1631 H       
  42 H42            0.0135     5.7154    -2.1014 H       
  43 H43            0.2788     8.1634    -2.0916 H       
  44 H44            3.9800     2.4020    -1.0501 H       
  45 H45            3.5293     3.1526     0.4997 H       
  46 H46            4.4589     1.6348     0.4830 H       
  47 H47           -0.0087    10.2228    -0.8333 H       
  48 H48            0.0172    10.2128     0.9464 H       
  49 H49            2.1207    10.1607     2.1572 H       
  50 H50            2.0549    10.1933    -2.1057 H       
  51 H51            4.4490    10.7593    -2.1495 H       
  52 H52            5.6908    11.0336    -0.0436 H       
  53 H53            7.1439    11.3196     4.2452 H       
@<TRIPOS>BOND
   1    1    2 ar
   2    1    6 ar
   3    1   32 1
   4    2    3 ar
   5    2   33 1
   6    3    4 ar
   7    3    7 1
   8    4    5 ar
   9    4   10 1
  10    5    6 ar
  11    5   19 1
  12    6   11 1
  13    7    8 2
  14    7    9 1
  15    9   34 1
  16    9   35 1
  17    9   36 1
  18   10   37 1
  19   11   12 1
  20   12   13 1
  21   12   38 1
  22   12   39 1
  23   13   16 ar
  24   13   15 ar
  25   14   15 ar
  26   14   18 ar
  27   14   40 1
  28   15   41 1
  29   16   17 ar
  30   16   42 1
  31   17   18 ar
  32   17   43 1
  33   18   20 1
  34   19   44 1
  35   19   45 1
  36   19   46 1
  37   20   21 1
  38   20   47 1
  39   20   48 1
  40   21   23 ar
  41   21   22 ar
  42   22   26 ar
  43   22   49 1
  44   23   24 ar
  45   23   50 1
  46   24   25 ar
  47   24   51 1
  48   25   26 ar
  49   25   52 1
  50   26   27 1
  51   27   28 2
  52   27   31 1
  53   28   29 1
  54   29   30 1
  55   29   53 1
  56   30   31 2

#	End of record

