#	Name: ASD01840365
#	Creating user name:	WinNT
#	Creation time:	15. 06. 2019 19:37

#	Modifying user name:	WinNT
#	Modification time:	15. 06. 2019 19:37

#	Program:	/corina/corina34_cracker 3.40 0067  02.08.2006

@<TRIPOS>MOLECULE
ASD01840365
  51   53    0    0    0
SMALL
NO_CHARGES


@<TRIPOS>ATOM
   1 C1             0.2611     1.7552    -0.9980 C.ar    
   2 C2             0.3841     0.5320    -1.6195 C.ar    
   3 N3             1.4990    -0.1677    -1.4965 N.ar    
   4 N4             2.4999     0.2427    -0.8111 N.ar    
   5 C5             1.3546     2.2267    -0.2364 C.ar    
   6 C6             1.5104     3.4570     0.5171 C.2     
   7 C7             2.4928     1.4121    -0.1670 C.ar    
   8 S8             3.7250     2.1824     0.8223 S.3     
   9 C9             2.7118     3.5783     1.1344 C.2     
  10 C10           -0.9999     2.5697    -1.1313 C.3     
  11 C11           -0.7562    -0.0106    -2.4419 C.3     
  12 N12            0.5179     4.4243     0.5985 N.pl3   
  13 C13            3.1102     4.7236     1.9514 C.2     
  14 O14            2.3404     5.6527     2.1138 O.2     
  15 N15            4.3297     4.7507     2.5248 N.am    
  16 C16            5.0757     5.6831     3.3831 C.3     
  17 C17            5.4973     3.8578     2.5728 C.3     
  18 C18            6.3699     5.1042     2.7947 C.3     
  19 N19            6.8146     5.7588     1.5618 N.am    
  20 C20            8.1169     5.7308     1.2159 C.2     
  21 C21            8.5744     6.4041    -0.0523 C.3     
  22 C22           10.0859     6.2252    -0.2081 C.3     
  23 C23           10.5503     6.9088    -1.4957 C.3     
  24 C24           12.0618     6.7300    -1.6515 C.3     
  25 C25           12.5263     7.4136    -2.9390 C.3     
  26 O26            8.9207     5.1637     1.9253 O.2     
  27 H27           -1.6441     2.3852    -0.2716 H       
  28 H28           -0.7456     3.6287    -1.1742 H       
  29 H29           -1.5220     2.2841    -2.0445 H       
  30 H30           -0.6493     0.3210    -3.4747 H       
  31 H31           -0.7433    -1.1000    -2.4068 H       
  32 H32           -1.7008     0.3547    -2.0389 H       
  33 H33           -0.4028     4.1923     0.4002 H       
  34 H34            0.7452     5.3322     0.8537 H       
  35 H35            4.9141     6.7308     3.1292 H       
  36 H36            4.9558     5.4836     4.4479 H       
  37 H37            5.4885     3.1771     3.4240 H       
  38 H38            5.6948     3.3503     1.6286 H       
  39 H39            7.1685     4.9642     3.5231 H       
  40 H40            6.1717     6.2124     0.9944 H       
  41 H41            8.0656     5.9557    -0.9056 H       
  42 H42            8.3372     7.4669    -0.0053 H       
  43 H43           10.5947     6.6736     0.6452 H       
  44 H44           10.3230     5.1624    -0.2551 H       
  45 H45           10.0415     6.4604    -2.3490 H       
  46 H46           10.3131     7.9717    -1.4487 H       
  47 H47           12.5706     7.1784    -0.7981 H       
  48 H48           12.2990     5.6671    -1.6985 H       
  49 H49           12.0175     6.9652    -3.7924 H       
  50 H50           12.2891     8.4764    -2.8920 H       
  51 H51           13.6031     7.2861    -3.0500 H       
@<TRIPOS>BOND
   1    1    2 ar
   2    1    5 ar
   3    1   10 1
   4    2   11 1
   5    2    3 ar
   6    3    4 ar
   7    4    7 ar
   8    5    7 ar
   9    5    6 1
  10    6    9 2
  11    6   12 1
  12    7    8 1
  13    8    9 1
  14    9   13 1
  15   10   27 1
  16   10   28 1
  17   10   29 1
  18   11   30 1
  19   11   31 1
  20   11   32 1
  21   12   33 1
  22   12   34 1
  23   13   14 2
  24   13   15 am
  25   15   16 1
  26   15   17 1
  27   16   18 1
  28   16   35 1
  29   16   36 1
  30   17   18 1
  31   17   37 1
  32   17   38 1
  33   18   19 1
  34   18   39 1
  35   19   20 am
  36   19   40 1
  37   20   21 1
  38   20   26 2
  39   21   22 1
  40   21   41 1
  41   21   42 1
  42   22   23 1
  43   22   43 1
  44   22   44 1
  45   23   24 1
  46   23   45 1
  47   23   46 1
  48   24   25 1
  49   24   47 1
  50   24   48 1
  51   25   49 1
  52   25   50 1
  53   25   51 1

#	End of record

