#	Name: ASD02030158
#	Creating user name:	WinNT
#	Creation time:	15. 06. 2019 20:14

#	Modifying user name:	WinNT
#	Modification time:	15. 06. 2019 20:14

#	Program:	/corina/corina34_cracker 3.40 0067  02.08.2006

@<TRIPOS>MOLECULE
ASD02030158
  58   62    0    0    0
SMALL
NO_CHARGES


@<TRIPOS>ATOM
   1 N1             0.1648     1.1495    -0.2962 N.am    
   2 C2            -0.1570    -0.2813    -0.3918 C.3     
   3 C3            -1.1014    -0.6491     0.7593 C.3     
   4 N4            -2.2024     0.3237     0.7926 N.am    
   5 C5            -1.8807     1.7545     0.8881 C.3     
   6 C6            -0.9364     2.1220    -0.2574 C.3     
   7 C7             1.4466     1.5621    -0.2397 C.2     
   8 C8             2.5389     0.5702    -0.1472 C.2     
   9 N9             3.8126     0.8376     0.0456 N.2     
  10 N10            2.4049    -0.7656    -0.2396 N.2     
  11 C11            3.5981    -1.2863    -0.1065 C.2     
  12 N12            4.4684    -0.2712     0.0713 N.pl3   
  13 O13            1.7045     2.7497    -0.2647 O.2     
  14 C14           -3.4843    -0.0888     0.7360 C.2     
  15 C15           -3.7957    -1.5371     0.7043 C.ar    
  16 O16           -4.3845     0.7270     0.7111 O.2     
  17 C17           -0.3749     3.5269    -0.0293 C.3     
  18 C18           -1.6972     2.0784    -1.5841 C.3     
  19 C19            5.8520    -0.4006     0.2527 C.ar    
  20 C20            6.6393     0.7294     0.4259 C.ar    
  21 C21            8.0039     0.5983     0.6051 C.ar    
  22 C22            8.5842    -0.6579     0.6115 C.ar    
  23 C23            7.8015    -1.7848     0.4391 C.ar    
  24 C24            6.4372    -1.6601     0.2654 C.ar    
  25 C25           -5.0759    -1.9607     0.3545 C.ar    
  26 Cl26           8.9900     2.0105     0.8218 Cl      
  27 N27           -2.8513    -2.4200     1.0041 N.ar    
  28 C28           -3.0862    -3.7139     0.9879 C.ar    
  29 C29           -4.3379    -4.2058     0.6547 C.ar    
  30 C30           -5.3521    -3.3186     0.3293 C.ar    
  31 C31           -1.9786    -4.6747     1.3361 C.3     
  32 C32           -1.8984    -5.1661     2.7828 C.3     
  33 C33           -2.3727    -6.1129     1.6786 C.3     
  34 H34           -0.6458    -0.4835    -1.3448 H       
  35 H35            0.7585    -0.8680    -0.3156 H       
  36 H36           -1.5022    -1.6499     0.5981 H       
  37 H37           -0.5571    -0.6181     1.7032 H       
  38 H38           -2.7962     2.3412     0.8119 H       
  39 H39           -1.3919     1.9568     1.8411 H       
  40 H40            3.8415    -2.3383    -0.1313 H       
  41 H41            0.3388     3.5037     0.7942 H       
  42 H42            0.1261     3.8693    -0.9348 H       
  43 H43           -1.1896     4.2085     0.2151 H       
  44 H44           -2.5227     2.7895    -1.5531 H       
  45 H45           -1.0222     2.3407    -2.3988 H       
  46 H46           -2.0886     1.0741    -1.7456 H       
  47 H47            6.1864     1.7099     0.4202 H       
  48 H48            9.6504    -0.7584     0.7509 H       
  49 H49            8.2573    -2.7639     0.4442 H       
  50 H50            5.8268    -2.5409     0.1313 H       
  51 H51           -5.8423    -1.2412     0.1069 H       
  52 H52           -4.5204    -5.2703     0.6441 H       
  53 H53           -6.3364    -3.6772     0.0664 H       
  54 H54           -1.0399    -4.5230     0.8033 H       
  55 H55           -0.9069    -5.3380     3.2017 H       
  56 H56           -2.6467    -4.7944     3.4828 H       
  57 H57           -3.4330    -6.3641     1.6520 H       
  58 H58           -1.6932    -6.9077     1.3709 H       
@<TRIPOS>BOND
   1    1    2 1
   2    1    7 am
   3    1    6 1
   4    2    3 1
   5    2   34 1
   6    2   35 1
   7    3    4 1
   8    3   36 1
   9    3   37 1
  10    4    5 1
  11    4   14 am
  12    5    6 1
  13    5   38 1
  14    5   39 1
  15    6   17 1
  16    6   18 1
  17    7    8 1
  18    7   13 2
  19    8    9 2
  20    8   10 1
  21    9   12 1
  22   10   11 2
  23   11   12 1
  24   11   40 1
  25   12   19 1
  26   14   15 1
  27   14   16 2
  28   15   27 ar
  29   15   25 ar
  30   17   41 1
  31   17   42 1
  32   17   43 1
  33   18   44 1
  34   18   45 1
  35   18   46 1
  36   19   20 ar
  37   19   24 ar
  38   20   21 ar
  39   20   47 1
  40   21   22 ar
  41   21   26 1
  42   22   23 ar
  43   22   48 1
  44   23   24 ar
  45   23   49 1
  46   24   50 1
  47   25   30 ar
  48   25   51 1
  49   27   28 ar
  50   28   29 ar
  51   28   31 1
  52   29   30 ar
  53   29   52 1
  54   30   53 1
  55   31   32 1
  56   31   33 1
  57   31   54 1
  58   32   33 1
  59   32   55 1
  60   32   56 1
  61   33   57 1
  62   33   58 1

#	End of record

