#	Name: ASD05740042
#	Creating user name:	WinNT
#	Creation time:	15. 06. 2019 21:02

#	Modifying user name:	WinNT
#	Modification time:	15. 06. 2019 21:02

#	Program:	/corina/corina34_cracker 3.40 0067  02.08.2006

@<TRIPOS>MOLECULE
ASD05740042
  51   52    0    0    0
SMALL
NO_CHARGES


@<TRIPOS>ATOM
   1 C1            -0.0184     1.5028     0.0103 C.3     
   2 C2             1.2820    -0.7398    -0.0142 C.2     
   3 C3             1.2322    -2.1977    -0.0212 C.2     
   4 C4             0.0021    -0.0041     0.0020 C.2     
   5 C5            -1.1528    -0.7105     0.0097 C.2     
   6 C6            -1.1314    -2.1174     0.0024 C.2     
   7 O7             0.0100    -2.8153    -0.0113 O.3     
   8 C8            -2.4729     0.0163     0.0267 C.3     
   9 C9            -2.9867     0.1577    -1.3829 C.ar    
  10 C10           -2.7427     1.3124    -2.1155 C.ar    
  11 O11           -2.1891    -2.7211     0.0097 O.2     
  12 C12           -4.1655    -0.6943    -3.2846 C.ar    
  13 N13           -3.9160     0.4243    -3.9463 N.ar    
  14 C14           -3.2264     1.4107    -3.4040 C.ar    
  15 N15           -4.8963    -1.7087    -3.8955 N.am    
  16 S16           -5.4497    -1.5134    -5.4440 S.o2    
  17 O17           -6.1579    -2.7146    -5.7172 O.2     
  18 O18           -6.1164    -0.2586    -5.4222 O.2     
  19 C19            2.4583    -2.7505    -0.0367 C.2     
  20 S20            3.7038    -1.5187    -0.0431 S.3     
  21 C21            2.5637    -0.2565    -0.0297 C.2     
  22 O22            2.6993    -4.0894    -0.0457 O.3     
  23 C23           -3.9456    -1.4175    -6.4535 C.3     
  24 C24           -4.3287    -1.2345    -7.9234 C.3     
  25 C25           -3.7077    -0.8626    -1.9793 C.ar    
  26 F26           -3.9635    -2.0053    -1.3056 F       
  27 C27            4.0673    -4.5023    -0.0619 C.3     
  28 H28            1.0042     1.8801     0.0026 H       
  29 H29           -0.5455     1.8639    -0.8728 H       
  30 H30           -0.5286     1.8543     0.9071 H       
  31 H31           -3.1913    -0.5490     0.6203 H       
  32 H32           -2.3376     1.0051     0.4650 H       
  33 H33           -2.1802     2.1254    -1.6807 H       
  34 H34           -3.0386     2.3070    -3.9765 H       
  35 H35           -5.0815    -2.5303    -3.4142 H       
  36 H36            2.8181     0.7931    -0.0285 H       
  37 H37           -3.3423    -0.5705    -6.1271 H       
  38 H38           -3.3722    -2.3375    -6.3393 H       
  39 H39           -3.4249    -1.1769    -8.5300 H       
  40 H40           -4.9320    -2.0816    -8.2498 H       
  41 H41           -4.9021    -0.3146    -8.0376 H       
  42 H42            4.1182    -5.5911    -0.0677 H       
  43 H43            4.5543    -4.1110    -0.9551 H       
  44 H44            4.5729    -4.1196     0.8247 H       
  45 C45           10.1000     9.9763     7.7754 C.3     
  46 N46           10.1199     8.5114     7.7673 N.2     
  47 C47           10.6606     7.8989     6.8213 C.1     
  48 O48           11.1832     7.3070     5.9071 O.2     
  49 H49           11.1226    10.3536     7.7676 H       
  50 H50            9.5729    10.3374     6.8923 H       
  51 H51            9.5899    10.3278     8.6722 H       
@<TRIPOS>BOND
   1    1    4 1
   2    1   28 1
   3    1   29 1
   4    1   30 1
   5    2    3 1
   6    2    4 1
   7    2   21 2
   8    3   19 2
   9    3    7 1
  10    4    5 2
  11    5    6 1
  12    5    8 1
  13    6    7 1
  14    6   11 2
  15    8    9 1
  16    8   31 1
  17    8   32 1
  18    9   10 ar
  19    9   25 ar
  20   10   14 ar
  21   10   33 1
  22   12   13 ar
  23   12   15 1
  24   12   25 ar
  25   13   14 ar
  26   14   34 1
  27   15   16 am
  28   15   35 1
  29   16   17 2
  30   16   18 2
  31   16   23 1
  32   19   20 1
  33   19   22 1
  34   20   21 1
  35   21   36 1
  36   22   27 1
  37   23   24 1
  38   23   37 1
  39   23   38 1
  40   24   39 1
  41   24   40 1
  42   24   41 1
  43   25   26 1
  44   27   42 1
  45   27   43 1
  46   27   44 1
  47   45   46 1
  48   45   49 1
  49   45   50 1
  50   45   51 1
  51   46   47 2
  52   47   48 2

#	End of record

