#	Name: ASD01812648
#	Creating user name:	WinNT
#	Creation time:	15. 06. 2019 19:28

#	Modifying user name:	WinNT
#	Modification time:	15. 06. 2019 19:28

#	Program:	/corina/corina34_cracker 3.40 0067  02.08.2006

@<TRIPOS>MOLECULE
ASD01812648
  50   54    0    0    0
SMALL
NO_CHARGES


@<TRIPOS>ATOM
   1 O1            -0.0163     1.3522     0.0095 O.3     
   2 C2             0.0021    -0.0041     0.0020 C.ar    
   3 C3             1.2105    -0.6847    -0.0132 C.ar    
   4 C4             1.2312    -2.0655    -0.0208 C.ar    
   5 C5             0.0448    -2.7828    -0.0128 C.ar    
   6 C6            -1.1603    -2.1223     0.0027 C.ar    
   7 C7            -1.2004    -0.7252     0.0155 C.ar    
   8 C8            -2.5947    -2.5891     0.0137 C.3     
   9 N9            -3.4200    -1.3759     0.0279 N.am    
  10 C10           -2.6104    -0.3028     0.0372 C.2     
  11 C11           -4.8845    -1.3401     0.0414 C.3     
  12 O12           -2.9891     0.8526     0.0485 O.2     
  13 C13            1.1734     2.0057     0.0016 C.ar    
  14 C14            1.8048     2.3329     1.2089 C.ar    
  15 C15            1.1984     1.9798     2.4572 C.1     
  16 C16            1.7735     2.3480    -1.2031 C.ar    
  17 C17            2.9856     3.0133    -1.2084 C.ar    
  18 C18            3.6092     3.3421    -0.0160 C.ar    
  19 C19            3.0296     3.0054     1.1881 C.ar    
  20 C20           -5.3737    -1.3358     1.4668 C.ar    
  21 C21           -5.5684    -0.1358     2.1258 C.ar    
  22 C22           -6.0163    -0.1285     3.4323 C.ar    
  23 C23           -6.2716    -1.3278     4.0839 C.ar    
  24 C24           -6.0755    -2.5311     3.4193 C.ar    
  25 C25           -5.6324    -2.5317     2.1111 C.ar    
  26 N26           -6.7256    -1.3238     5.4095 N.pl3   
  27 C27           -7.0118    -2.4190     6.1594 C.2     
  28 C28           -7.4168    -1.9898     7.3767 C.2     
  29 C29           -7.3783    -0.5869     7.3747 C.2     
  30 N30           -6.9588    -0.1894     6.1976 N.2     
  31 N31            0.7174     1.6997     3.4475 N.1     
  32 F32            1.1726     2.0305    -2.3707 F       
  33 O33           -7.7133     0.2210     8.4158 O.3     
  34 H34            2.1387    -0.1327    -0.0195 H       
  35 H35            2.1758    -2.5889    -0.0333 H       
  36 H36            0.0677    -3.8625    -0.0192 H       
  37 H37           -2.8050    -3.1749    -0.8812 H       
  38 H38           -2.7882    -3.1845     0.9060 H       
  39 H39           -5.2306    -0.4387    -0.4642 H       
  40 H40           -5.2741    -2.2181    -0.4738 H       
  41 H41            3.4489     3.2777    -2.1475 H       
  42 H42            4.5560     3.8614    -0.0301 H       
  43 H43            3.5218     3.2608     2.1149 H       
  44 H44           -5.3697     0.7967     1.6185 H       
  45 H45           -6.1675     0.8090     3.9467 H       
  46 H46           -6.2732    -3.4656     3.9234 H       
  47 H47           -5.4836    -3.4671     1.5923 H       
  48 H48           -6.9309    -3.4479     5.8412 H       
  49 H49           -7.7170    -2.6160     8.2037 H       
  50 H50           -6.9748     0.4321     9.0032 H       
@<TRIPOS>BOND
   1    1    2 1
   2    1   13 1
   3    2    3 ar
   4    2    7 ar
   5    3    4 ar
   6    3   34 1
   7    4    5 ar
   8    4   35 1
   9    5    6 ar
  10    5   36 1
  11    6    8 1
  12    6    7 ar
  13    7   10 1
  14    8    9 1
  15    8   37 1
  16    8   38 1
  17    9   10 am
  18    9   11 1
  19   10   12 2
  20   11   20 1
  21   11   39 1
  22   11   40 1
  23   13   16 ar
  24   13   14 ar
  25   14   15 1
  26   14   19 ar
  27   15   31 3
  28   16   17 ar
  29   16   32 1
  30   17   18 ar
  31   17   41 1
  32   18   19 ar
  33   18   42 1
  34   19   43 1
  35   20   21 ar
  36   20   25 ar
  37   21   22 ar
  38   21   44 1
  39   22   23 ar
  40   22   45 1
  41   23   24 ar
  42   23   26 1
  43   24   25 ar
  44   24   46 1
  45   25   47 1
  46   26   27 1
  47   26   30 1
  48   27   28 2
  49   27   48 1
  50   28   29 1
  51   28   49 1
  52   29   30 2
  53   29   33 1
  54   33   50 1

#	End of record

