#	Name: ASD03082140
#	Creating user name:	WinNT
#	Creation time:	15. 06. 2019 20:27

#	Modifying user name:	WinNT
#	Modification time:	15. 06. 2019 20:27

#	Program:	/corina/corina34_cracker 3.40 0067  02.08.2006

@<TRIPOS>MOLECULE
ASD03082140
  42   44    0    0    0
SMALL
NO_CHARGES


@<TRIPOS>ATOM
   1 C1             0.0142     1.5582     0.0378 C.ar    
   2 C2            -0.1284     0.4681     0.8867 C.ar    
   3 C3            -1.3514    -0.1644     0.9964 C.ar    
   4 C4            -2.4330     0.2864     0.2625 C.ar    
   5 C5            -2.2944     1.3714    -0.5840 C.ar    
   6 C6            -1.0762     2.0119    -0.6942 C.ar    
   7 N7             1.2499     2.2008    -0.0753 N.pl3   
   8 C8             2.4318     1.4693     0.0572 C.2     
   9 N9             2.5091     0.1557     0.2736 N.2     
  10 N10            3.6466     1.9634    -0.0170 N.2     
  11 N11            4.5358     0.8928     0.1705 N.pl3   
  12 C12            3.7733    -0.2093     0.3468 C.2     
  13 C13            5.9994     0.9569     0.1708 C.3     
  14 C14            4.2705    -1.5835     0.5814 C.ar    
  15 C15            3.4487    -2.6931     0.3579 C.ar    
  16 C16            3.9530    -3.9567     0.5896 C.ar    
  17 N17            5.1899    -4.1246     1.0159 N.ar    
  18 C18            5.9977    -3.1057     1.2391 C.ar    
  19 C19            5.5775    -1.8088     1.0274 C.ar    
  20 F20           -4.5901     1.0609    -1.1010 F       
  21 F21           -3.7544     3.1863    -1.0407 F       
  22 C22           -3.4759     1.8586    -1.3827 C.3     
  23 F23           -3.1799     1.7809    -2.7478 F       
  24 C24            7.4007    -3.3624     1.7258 C.3     
  25 C25            6.4940     1.3129     1.5742 C.3     
  26 C26            7.9646     1.3773     1.5745 C.1     
  27 N27            9.0995     1.4270     1.5747 N.1     
  28 H28            0.7161     0.1152     1.4600 H       
  29 H29           -1.4628    -1.0123     1.6560 H       
  30 H30           -3.3881    -0.2100     0.3502 H       
  31 H31           -0.9687     2.8593    -1.3551 H       
  32 H32            1.2865     3.1550    -0.2458 H       
  33 H33            6.4055    -0.0110    -0.1230 H       
  34 H34            6.3298     1.7189    -0.5350 H       
  35 H35            2.4347    -2.5630     0.0096 H       
  36 H36            3.3262    -4.8197     0.4200 H       
  37 H37            6.2442    -0.9795     1.2123 H       
  38 H38            8.0676    -3.4718     0.8706 H       
  39 H39            7.7313    -2.5244     2.3395 H       
  40 H40            7.4179    -4.2765     2.3193 H       
  41 H41            6.0878     2.2808     1.8680 H       
  42 H42            6.1635     0.5508     2.2800 H       
@<TRIPOS>BOND
   1    1    2 ar
   2    1    7 1
   3    1    6 ar
   4    2    3 ar
   5    2   28 1
   6    3    4 ar
   7    3   29 1
   8    4    5 ar
   9    4   30 1
  10    5    6 ar
  11    5   22 1
  12    6   31 1
  13    7    8 1
  14    7   32 1
  15    8    9 1
  16    8   10 2
  17    9   12 2
  18   10   11 1
  19   11   12 1
  20   11   13 1
  21   12   14 1
  22   13   25 1
  23   13   33 1
  24   13   34 1
  25   14   15 ar
  26   14   19 ar
  27   15   16 ar
  28   15   35 1
  29   16   17 ar
  30   16   36 1
  31   17   18 ar
  32   18   19 ar
  33   18   24 1
  34   19   37 1
  35   20   22 1
  36   21   22 1
  37   22   23 1
  38   24   38 1
  39   24   39 1
  40   24   40 1
  41   25   26 1
  42   25   41 1
  43   25   42 1
  44   26   27 3

#	End of record

