#	Name: ASD06140012
#	Creating user name:	WinNT
#	Creation time:	15. 06. 2019 21:05

#	Modifying user name:	WinNT
#	Modification time:	15. 06. 2019 21:05

#	Program:	/corina/corina34_cracker 3.40 0067  02.08.2006

@<TRIPOS>MOLECULE
ASD06140012
  49   51    0    0    0
SMALL
NO_CHARGES


@<TRIPOS>ATOM
   1 C1            -0.1022     1.4899    -0.3159 C.3     
   2 C2            -0.0660    -0.0112    -0.2711 C.2     
   3 C3             1.1131    -0.7403    -0.3921 C.2     
   4 C4             2.4563    -0.0913    -0.5682 C.3     
   5 C5             2.2824     1.3600    -1.0190 C.3     
   6 C6             1.2979     2.0557    -0.0729 C.3     
   7 O7            -1.1106    -0.6144    -0.1224 O.2     
   8 C8             1.0467    -2.0937    -0.3489 C.2     
   9 N9            -0.0798    -2.7066     0.1145 N.pl3   
  10 C10           -0.2032    -4.0962     0.0327 C.ar    
  11 C11           -1.3501    -4.7223     0.5043 C.ar    
  12 C12           -1.4688    -6.0957     0.4220 C.ar    
  13 C13           -0.4472    -6.8477    -0.1288 C.ar    
  14 C14            0.6961    -6.2278    -0.5988 C.ar    
  15 C15            0.8185    -4.8542    -0.5256 C.ar    
  16 C16           -0.5800    -8.3463    -0.2166 C.3     
  17 C17           -1.2217    -8.7178    -1.5286 C.2     
  18 C18           -0.6130    -9.5759    -2.3498 C.2     
  19 C19           -1.2252    -9.9748    -3.6776 C.3     
  20 C20            0.6914   -10.1771    -2.0114 C.2     
  21 C21            1.7196   -10.2484    -3.1227 C.3     
  22 C22            1.0339   -10.7907    -4.3808 C.3     
  23 C23           -0.1395    -9.8889    -4.7551 C.3     
  24 O24            0.9296   -10.5940    -0.8972 O.2     
  25 H25           -0.4585     1.8139    -1.2937 H       
  26 H26           -0.7799     1.8584     0.4543 H       
  27 H27            2.9956    -0.1136     0.3788 H       
  28 H28            3.0261    -0.6376    -1.3198 H       
  29 H29            3.2446     1.8709    -0.9852 H       
  30 H30            1.8899     1.3823    -2.0357 H       
  31 H31            1.2980     3.1279    -0.2694 H       
  32 H32            1.5920     1.8715     0.9604 H       
  33 H33            1.8861    -2.6864    -0.6814 H       
  34 H34           -0.7955    -2.1781     0.5010 H       
  35 H35           -2.1480    -4.1356     0.9352 H       
  36 H36           -2.3602    -6.5830     0.7884 H       
  37 H37            1.4923    -6.8181    -1.0277 H       
  38 H38            1.7116    -4.3706    -0.8929 H       
  39 H39            0.4077    -8.8029    -0.1530 H       
  40 H40           -1.1997    -8.7049     0.6053 H       
  41 H41           -2.1740    -8.2896    -1.8043 H       
  42 H42           -1.6017   -10.9959    -3.6163 H       
  43 H43           -2.0417    -9.2960    -3.9241 H       
  44 H44            2.1157    -9.2524    -3.3208 H       
  45 H45            2.5307   -10.9152    -2.8303 H       
  46 H46            1.7492   -10.8114    -5.2030 H       
  47 H47            0.6734   -11.8015    -4.1899 H       
  48 H48           -0.5551   -10.2125    -5.7094 H       
  49 H49            0.2082    -8.8596    -4.8428 H       
@<TRIPOS>BOND
   1    1    2 1
   2    1    6 1
   3    1   25 1
   4    1   26 1
   5    2    3 1
   6    2    7 2
   7    3    4 1
   8    3    8 2
   9    4    5 1
  10    4   27 1
  11    4   28 1
  12    5    6 1
  13    5   29 1
  14    5   30 1
  15    6   31 1
  16    6   32 1
  17    8    9 1
  18    8   33 1
  19    9   10 1
  20    9   34 1
  21   10   11 ar
  22   10   15 ar
  23   11   12 ar
  24   11   35 1
  25   12   13 ar
  26   12   36 1
  27   13   14 ar
  28   13   16 1
  29   14   15 ar
  30   14   37 1
  31   15   38 1
  32   16   17 1
  33   16   39 1
  34   16   40 1
  35   17   18 2
  36   17   41 1
  37   18   19 1
  38   18   20 1
  39   19   23 1
  40   19   42 1
  41   19   43 1
  42   20   21 1
  43   20   24 2
  44   21   22 1
  45   21   44 1
  46   21   45 1
  47   22   23 1
  48   22   46 1
  49   22   47 1
  50   23   48 1
  51   23   49 1

#	End of record

