#	Name: ASD01810065
#	Creating user name:	WinNT
#	Creation time:	15. 06. 2019 19:23

#	Modifying user name:	WinNT
#	Modification time:	15. 06. 2019 19:23

#	Program:	/corina/corina34_cracker 3.40 0067  02.08.2006

@<TRIPOS>MOLECULE
ASD01810065
  62   66    0    0    0
SMALL
NO_CHARGES


@<TRIPOS>ATOM
   1 C1             0.1976     1.2966     0.1710 C.ar    
   2 C2             0.2370    -0.0888     0.1580 C.ar    
   3 C3             1.4508    -0.7506     0.1101 C.ar    
   4 C4             2.6311    -0.0246     0.0746 C.ar    
   5 C5             2.5902     1.3713     0.0873 C.ar    
   6 C6             1.3698     2.0266     0.1358 C.ar    
   7 N7             3.9749    -0.3875     0.0241 N.am    
   8 C8             4.7177     0.7352     0.0069 C.2     
   9 N9             3.9117     1.8130     0.0441 N.am    
  10 C10            4.3488     3.2112     0.0399 C.3     
  11 C11            5.2334     3.4745     1.2617 C.3     
  12 C12            5.7364     4.9192     1.2195 C.3     
  13 N13            6.4996     5.1373    -0.0159 N.3     
  14 C14            5.6581     4.9364    -1.2024 C.3     
  15 C15            5.1528     3.4922    -1.2326 C.3     
  16 O16            5.9333     0.7704    -0.0352 O.2     
  17 C17            7.1145     6.4714    -0.0263 C.3     
  18 C18            8.0009     6.6166    -1.2663 C.3     
  19 C19            8.5901     8.0285    -1.3036 C.3     
  20 N20            7.5018     9.0137    -1.3398 N.3     
  21 C21            6.6650     8.9249    -0.1363 C.3     
  22 C22            6.0183     7.5398    -0.0641 C.3     
  23 C23            8.0284    10.3738    -1.5156 C.3     
  24 C24            6.9126    11.2936    -1.9396 C.ar    
  25 C25            6.4914    11.3080    -3.2559 C.ar    
  26 C26            5.4677    12.1519    -3.6449 C.ar    
  27 C27            4.8652    12.9809    -2.7174 C.ar    
  28 C28            5.2860    12.9658    -1.4005 C.ar    
  29 C29            6.3064    12.1190    -1.0107 C.ar    
  30 F30           -0.9141    -0.7953     0.1926 F       
  31 C31            7.1482    10.4042    -4.2672 C.3     
  32 F32            6.4998    10.5347    -5.4999 F       
  33 F33            8.4935    10.7615    -4.4077 F       
  34 F34            7.0611     9.0772    -3.8327 F       
  35 H35           -0.7534     1.8073     0.2043 H       
  36 H36            1.4787    -1.8302     0.1007 H       
  37 H37            1.3354     3.1060     0.1454 H       
  38 H38            4.3173    -1.2949     0.0049 H       
  39 H39            3.4776     3.8654     0.0733 H       
  40 H40            4.6538     3.3173     2.1713 H       
  41 H41            6.0838     2.7926     1.2490 H       
  42 H42            4.8861     5.6007     1.2462 H       
  43 H43            6.3781     5.1056     2.0806 H       
  44 H44            4.8082     5.6178    -1.1644 H       
  45 H45            6.2430     5.1354    -2.1004 H       
  46 H46            6.0019     2.8106    -1.2845 H       
  47 H47            4.5155     3.3477    -2.1050 H       
  48 H48            7.7195     6.6006     0.8711 H       
  49 H49            8.8088     5.8862    -1.2238 H       
  50 H50            7.4037     6.4478    -2.1624 H       
  51 H51            9.1984     8.1918    -0.4140 H       
  52 H52            9.2104     8.1398    -2.1930 H       
  53 H53            7.2823     9.0840     0.7478 H       
  54 H54            5.8870     9.6872    -0.1778 H       
  55 H55            5.3899     7.3854    -0.9413 H       
  56 H56            5.4097     7.4688     0.8373 H       
  57 H57            8.4504    10.7245    -0.5738 H       
  58 H58            8.8043    10.3668    -2.2811 H       
  59 H59            5.1390    12.1637    -4.6736 H       
  60 H60            4.0661    13.6406    -3.0215 H       
  61 H61            4.8155    13.6138    -0.6759 H       
  62 H62            6.6351    12.1072     0.0180 H       
@<TRIPOS>BOND
   1    1    2 ar
   2    1    6 ar
   3    1   35 1
   4    2    3 ar
   5    2   30 1
   6    3    4 ar
   7    3   36 1
   8    4    5 ar
   9    4    7 1
  10    5    6 ar
  11    5    9 1
  12    6   37 1
  13    7    8 am
  14    7   38 1
  15    8    9 am
  16    8   16 2
  17    9   10 1
  18   10   11 1
  19   10   15 1
  20   10   39 1
  21   11   12 1
  22   11   40 1
  23   11   41 1
  24   12   13 1
  25   12   42 1
  26   12   43 1
  27   13   14 1
  28   13   17 1
  29   14   15 1
  30   14   44 1
  31   14   45 1
  32   15   46 1
  33   15   47 1
  34   17   18 1
  35   17   22 1
  36   17   48 1
  37   18   19 1
  38   18   49 1
  39   18   50 1
  40   19   20 1
  41   19   51 1
  42   19   52 1
  43   20   21 1
  44   20   23 1
  45   21   22 1
  46   21   53 1
  47   21   54 1
  48   22   55 1
  49   22   56 1
  50   23   24 1
  51   23   57 1
  52   23   58 1
  53   24   25 ar
  54   24   29 ar
  55   25   26 ar
  56   25   31 1
  57   26   27 ar
  58   26   59 1
  59   27   28 ar
  60   27   60 1
  61   28   29 ar
  62   28   61 1
  63   29   62 1
  64   31   32 1
  65   31   33 1
  66   31   34 1

#	End of record

