#	Name: ASD01948068
#	Creating user name:	WinNT
#	Creation time:	15. 06. 2019 20:13

#	Modifying user name:	WinNT
#	Modification time:	15. 06. 2019 20:13

#	Program:	/corina/corina34_cracker 3.40 0067  02.08.2006

@<TRIPOS>MOLECULE
ASD01948068
  65   67    0    0    0
SMALL
NO_CHARGES


@<TRIPOS>ATOM
   1 C1            -0.0188     1.5336     0.0105 C.3     
   2 C2             0.0021    -0.0041     0.0020 C.3     
   3 C3             1.3941     0.0896     0.6488 C.3     
   4 C4             1.5179     1.4762    -0.0045 C.3     
   5 S5            -0.7335     2.2589    -1.4908 S.o2    
   6 O6             0.0533     1.9291    -2.6272 O.2     
   7 O7            -2.1445     2.0907    -1.5028 O.2     
   8 O8            -0.5357     3.7582    -1.3195 O.3     
   9 C9             0.6922    -1.1377     2.7088 C.3     
  10 C10            1.3578     0.1335     2.1778 C.3     
  11 C11            2.7857     0.2259     2.7194 C.3     
  12 O12            3.3675     1.4682     2.3192 O.3     
  13 C13            4.7085     1.6559     2.7758 C.3     
  14 C14            5.2195     2.9909     2.2987 C.ar    
  15 C15            5.0416     4.1181     3.0789 C.ar    
  16 C16            5.5102     5.3427     2.6412 C.ar    
  17 C17            6.1571     5.4401     1.4235 C.ar    
  18 C18            6.3359     4.3128     0.6436 C.ar    
  19 C19            5.8710     3.0874     1.0833 C.ar    
  20 O20            0.5530    -1.0452     4.1280 O.3     
  21 C21           -0.0611    -2.1879     4.7275 C.3     
  22 C22           -0.1566    -1.9831     6.2174 C.ar    
  23 C23           -1.2766    -1.3834     6.7623 C.ar    
  24 C24           -1.3643    -1.1956     8.1290 C.ar    
  25 C25           -0.3320    -1.6077     8.9509 C.ar    
  26 C26            0.7876    -2.2081     8.4061 C.ar    
  27 C27            0.8733    -2.3999     7.0398 C.ar    
  28 C28            0.8089     4.1947    -1.5286 C.3     
  29 C29            0.8897     5.7098    -1.3316 C.3     
  30 C30            2.3293     6.1771    -1.5555 C.3     
  31 C31            2.4102     7.6922    -1.3585 C.3     
  32 H32           -0.4309     1.9596     0.9252 H       
  33 H33           -0.7506    -0.4545     0.6490 H       
  34 H34            0.0139    -0.4351    -0.9991 H       
  35 H35            2.1053    -0.6404     0.2621 H       
  36 H36            1.9441     1.4499    -1.0074 H       
  37 H37            1.9889     2.2208     0.6373 H       
  38 H38           -0.2919    -1.2498     2.2537 H       
  39 H39            1.3083    -2.0017     2.4597 H       
  40 H40            0.7888     1.0045     2.5028 H       
  41 H41            2.7660     0.1677     3.8076 H       
  42 H42            3.3790    -0.5978     2.3222 H       
  43 H43            4.7287     1.6274     3.8653 H       
  44 H44            5.3417     0.8619     2.3798 H       
  45 H45            4.5361     4.0420     4.0303 H       
  46 H46            5.3706     6.2234     3.2504 H       
  47 H47            6.5227     6.3970     1.0812 H       
  48 H48            6.8410     4.3889    -0.3079 H       
  49 H49            6.0139     2.2060     0.4758 H       
  50 H50           -1.0608    -2.3218     4.3143 H       
  51 H51            0.5394    -3.0736     4.5202 H       
  52 H52           -2.0831    -1.0615     6.1201 H       
  53 H53           -2.2390    -0.7265     8.5546 H       
  54 H54           -0.4002    -1.4602    10.0186 H       
  55 H55            1.5942    -2.5298     9.0483 H       
  56 H56            1.7465    -2.8724     6.6146 H       
  57 H57            1.4668     3.6998    -0.8143 H       
  58 H58            1.1189     3.9431    -2.5429 H       
  59 H59            0.2318     6.2047    -2.0459 H       
  60 H60            0.5797     5.9613    -0.3174 H       
  61 H61            2.9873     5.6822    -0.8412 H       
  62 H62            2.6394     5.9255    -2.5698 H       
  63 H63            1.7522     8.1871    -2.0728 H       
  64 H64            2.1001     7.9437    -0.3443 H       
  65 H65            3.4357     8.0251    -1.5180 H       
@<TRIPOS>BOND
   1    1    2 1
   2    1    4 1
   3    1    5 1
   4    1   32 1
   5    2    3 1
   6    2   33 1
   7    2   34 1
   8    3    4 1
   9    3   10 1
  10    3   35 1
  11    4   36 1
  12    4   37 1
  13    5    6 2
  14    5    7 2
  15    5    8 1
  16    8   28 1
  17    9   10 1
  18    9   20 1
  19    9   38 1
  20    9   39 1
  21   10   11 1
  22   10   40 1
  23   11   12 1
  24   11   41 1
  25   11   42 1
  26   12   13 1
  27   13   14 1
  28   13   43 1
  29   13   44 1
  30   14   15 ar
  31   14   19 ar
  32   15   16 ar
  33   15   45 1
  34   16   17 ar
  35   16   46 1
  36   17   18 ar
  37   17   47 1
  38   18   19 ar
  39   18   48 1
  40   19   49 1
  41   20   21 1
  42   21   22 1
  43   21   50 1
  44   21   51 1
  45   22   23 ar
  46   22   27 ar
  47   23   24 ar
  48   23   52 1
  49   24   25 ar
  50   24   53 1
  51   25   26 ar
  52   25   54 1
  53   26   27 ar
  54   26   55 1
  55   27   56 1
  56   28   29 1
  57   28   57 1
  58   28   58 1
  59   29   30 1
  60   29   59 1
  61   29   60 1
  62   30   31 1
  63   30   61 1
  64   30   62 1
  65   31   63 1
  66   31   64 1
  67   31   65 1

#	End of record

