#	Name: ASD01410938
#	Creating user name:	WinNT
#	Creation time:	15. 06. 2019 19:19

#	Modifying user name:	WinNT
#	Modification time:	15. 06. 2019 19:19

#	Program:	/corina/corina34_cracker 3.40 0067  02.08.2006

@<TRIPOS>MOLECULE
ASD01410938
  54   56    0    0    0
SMALL
NO_CHARGES


@<TRIPOS>ATOM
   1 C1            -0.2561     1.5846     0.1914 C.3     
   2 C2            -0.0928     0.0684     0.0668 C.3     
   3 C3             0.6501    -0.4669     1.2925 C.3     
   4 C4             2.0296     0.1891     1.3794 C.3     
   5 C5             1.8663     1.7053     1.5040 C.3     
   6 C6             1.1233     2.2406     0.2783 C.3     
   7 C7            -0.9991     2.1199    -1.0343 C.3     
   8 C8             2.7614    -0.3382     2.5867 C.2     
   9 N9             4.1064    -0.2711     2.6419 N.am    
  10 O10            2.1401    -0.8229     3.5086 O.2     
  11 C11            4.7778    -0.6663     3.7996 C.2     
  12 C12            4.9705     0.1724     4.8720 C.2     
  13 S13            5.8511    -0.6772     6.1346 S.3     
  14 C14            5.9227    -2.1366     5.1573 C.2     
  15 C15            5.2967    -1.9287     3.9656 C.2     
  16 C16            4.5285     1.5135     4.9477 C.2     
  17 O17            3.8803     1.9930     4.0358 O.2     
  18 O18            4.8254     2.2619     6.0312 O.3     
  19 C19            6.5625    -3.4034     5.5699 C.ar    
  20 C20            7.1717    -3.5059     6.8217 C.ar    
  21 C21            7.7671    -4.6912     7.2007 C.ar    
  22 C22            7.7613    -5.7770     6.3431 C.ar    
  23 C23            7.1596    -5.6820     5.1008 C.ar    
  24 C24            6.5552    -4.5044     4.7119 C.ar    
  25 C25            4.8635     0.2167     1.4864 C.3     
  26 C26            5.7776     1.3634     1.9228 C.3     
  27 C27            5.7109    -0.9216     0.9145 C.3     
  28 H28           -0.8259     1.8159     1.0914 H       
  29 H29           -1.0756    -0.3990     0.0049 H       
  30 H30            0.4769    -0.1629    -0.8332 H       
  31 H31            0.0804    -0.2356     2.1925 H       
  32 H32            0.7665    -1.5471     1.2037 H       
  33 H33            2.5994    -0.0422     0.4795 H       
  34 H34            1.2966     1.9366     2.4040 H       
  35 H35            2.8491     2.1727     1.5660 H       
  36 H36            1.6931     2.0093    -0.6216 H       
  37 H37            1.0070     3.3208     0.3671 H       
  38 H38           -1.9819     1.6525    -1.0962 H       
  39 H39           -1.1154     3.2001    -0.9455 H       
  40 H40           -0.4294     1.8886    -1.9343 H       
  41 H41            5.2170    -2.6949     3.2087 H       
  42 H42            4.4809     3.1646     5.9921 H       
  43 H43            7.1772    -2.6590     7.4919 H       
  44 H44            8.2391    -4.7718     8.1687 H       
  45 H45            8.2288    -6.7027     6.6446 H       
  46 H46            7.1592    -6.5330     4.4358 H       
  47 H47            6.0814    -4.4332     3.7440 H       
  48 H48            4.1719     0.5737     0.7233 H       
  49 H49            6.4105     1.0306     2.7455 H       
  50 H50            6.4029     1.6690     1.0840 H       
  51 H51            5.1706     2.2076     2.2500 H       
  52 H52            5.0597    -1.7385     0.6036 H       
  53 H53            6.2742    -0.5587     0.0548 H       
  54 H54            6.4025    -1.2785     1.6776 H       
@<TRIPOS>BOND
   1    1    2 1
   2    1    6 1
   3    1    7 1
   4    1   28 1
   5    2    3 1
   6    2   29 1
   7    2   30 1
   8    3    4 1
   9    3   31 1
  10    3   32 1
  11    4    5 1
  12    4    8 1
  13    4   33 1
  14    5    6 1
  15    5   34 1
  16    5   35 1
  17    6   36 1
  18    6   37 1
  19    7   38 1
  20    7   39 1
  21    7   40 1
  22    8    9 am
  23    8   10 2
  24    9   11 1
  25    9   25 1
  26   11   12 2
  27   11   15 1
  28   12   13 1
  29   12   16 1
  30   13   14 1
  31   14   15 2
  32   14   19 1
  33   15   41 1
  34   16   17 2
  35   16   18 1
  36   18   42 1
  37   19   20 ar
  38   19   24 ar
  39   20   21 ar
  40   20   43 1
  41   21   22 ar
  42   21   44 1
  43   22   23 ar
  44   22   45 1
  45   23   24 ar
  46   23   46 1
  47   24   47 1
  48   25   26 1
  49   25   27 1
  50   25   48 1
  51   26   49 1
  52   26   50 1
  53   26   51 1
  54   27   52 1
  55   27   53 1
  56   27   54 1

#	End of record

