#	Name: ASD01914096
#	Creating user name:	WinNT
#	Creation time:	15. 06. 2019 20:02

#	Modifying user name:	WinNT
#	Modification time:	15. 06. 2019 20:02

#	Program:	/corina/corina34_cracker 3.40 0067  02.08.2006

@<TRIPOS>MOLECULE
ASD01914096
  41   43    0    0    0
SMALL
NO_CHARGES


@<TRIPOS>ATOM
   1 C1            -0.0167     1.3783     0.0096 C.ar    
   2 C2             0.0021    -0.0041     0.0020 C.ar    
   3 C3             2.3997     0.0285    -0.0208 C.ar    
   4 C4             2.3807     1.4151    -0.0136 C.ar    
   5 O5             3.5853    -0.6355    -0.0366 O.3     
   6 C6             1.2066    -0.6801    -0.0132 C.ar    
   7 C7             1.1719     2.0887     0.0021 C.ar    
   8 C8             3.5291    -2.0634    -0.0433 C.3     
   9 C9             4.9290    -2.6212    -0.0608 C.ar    
  10 N10            5.1065    -3.9284    -0.0693 N.ar    
  11 C11            6.3081    -4.4671    -0.0847 C.ar    
  12 C12            7.4469    -3.6610    -0.0921 C.ar    
  13 C13            7.2907    -2.2696    -0.0834 C.ar    
  14 C14            6.0069    -1.7539    -0.0734 C.ar    
  15 C15            8.7958    -4.2659    -0.1084 C.2     
  16 N16            8.9331    -5.6066    -0.1162 N.am    
  17 C17           10.2698    -6.2060    -0.1323 C.3     
  18 C18           10.2072    -7.5894     0.4622 C.2     
  19 O19            9.7811    -3.5540    -0.1147 O.2     
  20 C20           10.7723    -6.2931    -1.5748 C.3     
  21 F21            1.1515     3.4395     0.0091 F       
  22 N22           11.0476    -8.0639     1.3186 N.2     
  23 C23           10.8459    -9.2965     1.7388 C.2     
  24 C24            9.7757    -9.8951     1.2073 C.2     
  25 S25            9.0081    -8.7547     0.1051 S.3     
  26 H26           -0.9596     1.9048     0.0170 H       
  27 H27           -0.9262    -0.5561     0.0083 H       
  28 H28            3.3080     1.9685    -0.0198 H       
  29 H29            1.2198    -1.7600    -0.0187 H       
  30 H30            3.0107    -2.4108     0.8505 H       
  31 H31            2.9920    -2.4018    -0.9294 H       
  32 H32            6.4130    -5.5419    -0.0912 H       
  33 H33            8.1502    -1.6156    -0.0888 H       
  34 H34            5.8479    -0.6857    -0.0666 H       
  35 H35            8.1469    -6.1747    -0.1111 H       
  36 H36           10.9516    -5.5894     0.4534 H       
  37 H37           10.0905    -6.9097    -2.1604 H       
  38 H38           10.8176    -5.2925    -2.0048 H       
  39 H39           11.7668    -6.7390    -1.5868 H       
  40 H40           11.4926    -9.7832     2.4538 H       
  41 H41            9.4387   -10.8991     1.4190 H       
@<TRIPOS>BOND
   1    1    2 ar
   2    1    7 ar
   3    1   26 1
   4    2    6 ar
   5    2   27 1
   6    3    4 ar
   7    3    5 1
   8    3    6 ar
   9    4    7 ar
  10    4   28 1
  11    5    8 1
  12    6   29 1
  13    7   21 1
  14    8    9 1
  15    8   30 1
  16    8   31 1
  17    9   10 ar
  18    9   14 ar
  19   10   11 ar
  20   11   12 ar
  21   11   32 1
  22   12   13 ar
  23   12   15 1
  24   13   14 ar
  25   13   33 1
  26   14   34 1
  27   15   16 am
  28   15   19 2
  29   16   17 1
  30   16   35 1
  31   17   18 1
  32   17   20 1
  33   17   36 1
  34   18   22 2
  35   18   25 1
  36   20   37 1
  37   20   38 1
  38   20   39 1
  39   22   23 1
  40   23   24 2
  41   23   40 1
  42   24   25 1
  43   24   41 1

#	End of record

