#	Name: ASD01100067
#	Creating user name:	WinNT
#	Creation time:	15. 06. 2019 18:58

#	Modifying user name:	WinNT
#	Modification time:	15. 06. 2019 18:58

#	Program:	/corina/corina34_cracker 3.40 0067  02.08.2006

@<TRIPOS>MOLECULE
ASD01100067
  28   29    0    0    0
SMALL
NO_CHARGES


@<TRIPOS>ATOM
   1 C1            -0.0167     1.3793     0.0096 C.ar    
   2 C2             0.0021    -0.0041     0.0020 C.ar    
   3 C3             1.2098    -0.6789    -0.0131 C.ar    
   4 C4             2.3967     0.0292    -0.0207 C.ar    
   5 C5             2.3773     1.4115    -0.0131 C.ar    
   6 C6             1.1709     2.0863     0.0021 C.ar    
   7 C7             3.6719     2.1830    -0.0208 C.3     
   8 C8             3.7522     3.0569     1.2325 C.3     
   9 Cl9           -1.4892    -0.8928     0.0121 Cl      
  10 C10            3.7284     3.0570    -1.2471 C.2     
  11 N11            4.8017     3.8423    -1.4660 N.am    
  12 O12            2.8082     3.0537    -2.0371 O.2     
  13 C13            4.8539     4.6484    -2.5972 C.2     
  14 N14            5.8358     5.4381    -2.9014 N.2     
  15 C15            5.7197     6.1333    -4.0174 C.2     
  16 C16            4.5858     5.9208    -4.6880 C.2     
  17 S17            3.6357     4.7373    -3.7935 S.3     
  18 H18           -0.9592     1.9066     0.0170 H       
  19 H19            1.2250    -1.7588    -0.0187 H       
  20 H20            3.3395    -0.4974    -0.0321 H       
  21 H21            1.1564     3.1662     0.0080 H       
  22 H22            4.5100     1.4862    -0.0322 H       
  23 H23            3.7113     2.4247     2.1195 H       
  24 H24            4.6885     3.6149     1.2269 H       
  25 H25            2.9141     3.7537     1.2439 H       
  26 H26            5.5377     3.8448    -0.8342 H       
  27 H27            6.4809     6.8185    -4.3601 H       
  28 H28            4.3016     6.3901    -5.6183 H       
@<TRIPOS>BOND
   1    1    2 ar
   2    1    6 ar
   3    1   18 1
   4    2    3 ar
   5    2    9 1
   6    3    4 ar
   7    3   19 1
   8    4    5 ar
   9    4   20 1
  10    5    6 ar
  11    5    7 1
  12    6   21 1
  13    7    8 1
  14    7   10 1
  15    7   22 1
  16    8   23 1
  17    8   24 1
  18    8   25 1
  19   10   11 am
  20   10   12 2
  21   11   13 1
  22   11   26 1
  23   13   14 2
  24   13   17 1
  25   14   15 1
  26   15   16 2
  27   15   27 1
  28   16   17 1
  29   16   28 1

#	End of record

