#	Name: ASD01231394
#	Creating user name:	WinNT
#	Creation time:	15. 06. 2019 19:15

#	Modifying user name:	WinNT
#	Modification time:	15. 06. 2019 19:15

#	Program:	/corina/corina34_cracker 3.40 0067  02.08.2006

@<TRIPOS>MOLECULE
ASD01231394
  47   49    0    0    0
SMALL
NO_CHARGES


@<TRIPOS>ATOM
   1 C1            -0.0225     1.8097     0.0120 C.3     
   2 S2             0.0021    -0.0041     0.0020 S.o2    
   3 O3            -1.3056    -0.5216     0.2056 O.2     
   4 O4             0.8248    -0.4858    -1.0517 O.2     
   5 N5             0.8226    -0.4138     1.3808 N.am    
   6 C6            -0.4961    -1.3061     3.2784 C.3     
   7 C7             0.2564    -0.0922     2.6931 C.3     
   8 C8             1.3746     0.1366     3.7321 C.3     
   9 C9             0.8278    -0.4159     5.0309 C.ar    
  10 C10            1.2382    -0.2097     6.3375 C.ar    
  11 C11            0.5772    -0.8294     7.3797 C.ar    
  12 C12           -0.4980    -1.6586     7.1189 C.ar    
  13 C13           -0.9087    -1.8655     5.8167 C.ar    
  14 C14           -0.2471    -1.2449     4.7702 C.ar    
  15 C15            1.0270    -0.6017     8.7998 C.3     
  16 C16            0.2958     0.5842     9.3743 C.ar    
  17 C17           -0.9082     0.4030    10.0293 C.ar    
  18 C18           -1.5789     1.4906    10.5561 C.ar    
  19 C19           -1.0455     2.7598    10.4286 C.ar    
  20 C20            0.1586     2.9408     9.7747 C.ar    
  21 C21            0.8316     1.8523     9.2514 C.ar    
  22 C22            0.7398     4.3242     9.6352 C.3     
  23 F23           -0.1135     5.2519    10.2423 F       
  24 F24            1.9931     4.3682    10.2552 F       
  25 F25            0.8793     4.6369     8.2788 F       
  26 C26           -2.8917     1.2932    11.2692 C.3     
  27 O27           -2.6498     1.0713    12.6599 O.3     
  28 F28            1.2900     2.2940     0.0021 F       
  29 F29           -0.6992     2.2732    -1.1214 F       
  30 F30           -0.6773     2.2609     1.1630 F       
  31 H31            1.6782    -0.8667     1.3196 H       
  32 H32           -1.5629    -1.2264     3.0694 H       
  33 H33           -0.0974    -2.2330     2.8661 H       
  34 H34           -0.3988     0.7768     2.6313 H       
  35 H35            2.2766    -0.4022     3.4418 H       
  36 H36            1.5851     1.2014     3.8329 H       
  37 H37            2.0782     0.4376     6.5419 H       
  38 H38           -1.0158    -2.1443     7.9327 H       
  39 H39           -1.7487    -2.5133     5.6138 H       
  40 H40            0.8085    -1.4873     9.3966 H       
  41 H41            2.0998    -0.4092     8.8147 H       
  42 H42           -1.3249    -0.5884    10.1289 H       
  43 H43           -1.5699     3.6097    10.8397 H       
  44 H44            1.7743     1.9933     8.7437 H       
  45 H45           -3.5098     2.1824    11.1452 H       
  46 H46           -3.4078     0.4304    10.8480 H       
  47 H47           -3.4524     0.9360    13.1821 H       
@<TRIPOS>BOND
   1    1    2 1
   2    1   28 1
   3    1   29 1
   4    1   30 1
   5    2    3 2
   6    2    4 2
   7    2    5 am
   8    5    7 1
   9    5   31 1
  10    6    7 1
  11    6   14 1
  12    6   32 1
  13    6   33 1
  14    7    8 1
  15    7   34 1
  16    8    9 1
  17    8   35 1
  18    8   36 1
  19    9   10 ar
  20    9   14 ar
  21   10   11 ar
  22   10   37 1
  23   11   12 ar
  24   11   15 1
  25   12   13 ar
  26   12   38 1
  27   13   14 ar
  28   13   39 1
  29   15   16 1
  30   15   40 1
  31   15   41 1
  32   16   17 ar
  33   16   21 ar
  34   17   18 ar
  35   17   42 1
  36   18   19 ar
  37   18   26 1
  38   19   20 ar
  39   19   43 1
  40   20   21 ar
  41   20   22 1
  42   21   44 1
  43   22   23 1
  44   22   24 1
  45   22   25 1
  46   26   27 1
  47   26   45 1
  48   26   46 1
  49   27   47 1

#	End of record

