#	Name: ASD01410187
#	Creating user name:	WinNT
#	Creation time:	15. 06. 2019 19:16

#	Modifying user name:	WinNT
#	Modification time:	15. 06. 2019 19:16

#	Program:	/corina/corina34_cracker 3.40 0067  02.08.2006

@<TRIPOS>MOLECULE
ASD01410187
  44   47    0    0    0
SMALL
NO_CHARGES


@<TRIPOS>ATOM
   1 C1            -0.0108     1.4143    -0.0101 C.ar    
   2 C2            -0.0022     0.0082     0.0914 C.ar    
   3 C3            -1.2119    -0.6933     0.1987 C.ar    
   4 C4            -2.3930    -0.0173     0.2049 C.ar    
   5 C5            -2.4116     1.3821     0.1043 C.ar    
   6 C6            -1.2187     2.0950     0.0014 C.ar    
   7 N7             1.3023     1.8260    -0.1005 N.pl3   
   8 C8             2.1175     0.7193    -0.0579 C.2     
   9 C9             1.3539    -0.3966     0.0582 C.2     
  10 C10            1.4681    -2.4199     1.4874 C.3     
  11 C11            1.9814    -3.8589     1.5685 C.3     
  12 C12            1.3625    -4.6855     0.4396 C.3     
  13 C13            1.7539    -4.0797    -0.9098 C.3     
  14 C14            1.2406    -2.6407    -0.9909 C.3     
  15 C15            1.8595    -1.8140     0.1381 C.3     
  16 C16           -3.6986     2.1016     0.1118 C.2     
  17 O17           -3.7177     3.3134     0.0248 O.2     
  18 O18           -4.8538     1.4152     0.2150 O.3     
  19 C19            5.6111    -0.2591     0.3847 C.ar    
  20 C20            6.3159     0.7551    -0.2375 C.ar    
  21 C21            5.6235     1.8037    -0.8273 C.ar    
  22 C22            4.2411     1.7970    -0.7713 C.ar    
  23 C23            3.5941     0.7417    -0.1272 C.ar    
  24 N24            4.2947    -0.2426     0.4245 N.ar    
  25 H25           -1.2062    -1.7705     0.2762 H       
  26 H26           -3.3222    -0.5616     0.2874 H       
  27 H27           -1.2353     3.1721    -0.0757 H       
  28 H28            1.6017     2.7451    -0.1813 H       
  29 H29            0.3827    -2.4152     1.5867 H       
  30 H30            1.9091    -1.8309     2.2917 H       
  31 H31            3.0669    -3.8636     1.4693 H       
  32 H32            1.7026    -4.2905     2.5298 H       
  33 H33            1.7282    -5.7107     0.4973 H       
  34 H34            0.2770    -4.6808     0.5388 H       
  35 H35            2.8393    -4.0844    -1.0090 H       
  36 H36            1.3129    -4.6686    -1.7140 H       
  37 H37            1.5194    -2.2091    -1.9522 H       
  38 H38            0.1551    -2.6360    -0.8916 H       
  39 H39            2.9450    -1.8187     0.0388 H       
  40 H40           -5.6720     1.9305     0.2156 H       
  41 H41            6.1475    -1.0784     0.8404 H       
  42 H42            7.3954     0.7317    -0.2640 H       
  43 H43            6.1521     2.6072    -1.3187 H       
  44 H44            3.6709     2.5973    -1.2195 H       
@<TRIPOS>BOND
   1    1    2 ar
   2    1    7 1
   3    1    6 ar
   4    2    3 ar
   5    2    9 1
   6    3    4 ar
   7    3   25 1
   8    4    5 ar
   9    4   26 1
  10    5    6 ar
  11    5   16 1
  12    6   27 1
  13    7    8 1
  14    7   28 1
  15    8    9 2
  16    8   23 1
  17    9   15 1
  18   10   11 1
  19   10   15 1
  20   10   29 1
  21   10   30 1
  22   11   12 1
  23   11   31 1
  24   11   32 1
  25   12   13 1
  26   12   33 1
  27   12   34 1
  28   13   14 1
  29   13   35 1
  30   13   36 1
  31   14   15 1
  32   14   37 1
  33   14   38 1
  34   15   39 1
  35   16   17 2
  36   16   18 1
  37   18   40 1
  38   19   20 ar
  39   19   24 ar
  40   19   41 1
  41   20   21 ar
  42   20   42 1
  43   21   22 ar
  44   21   43 1
  45   22   23 ar
  46   22   44 1
  47   23   24 ar

#	End of record

