#	Name: ASD03540497
#	Creating user name:	WinNT
#	Creation time:	15. 06. 2019 20:43

#	Modifying user name:	WinNT
#	Modification time:	15. 06. 2019 20:43

#	Program:	/corina/corina34_cracker 3.40 0067  02.08.2006

@<TRIPOS>MOLECULE
ASD03540497
  56   59    0    0    0
SMALL
NO_CHARGES


@<TRIPOS>ATOM
   1 C1             2.7518    -8.6914    -2.5505 C.2     
   2 C2             2.0607    -7.5588    -1.9009 C.ar    
   3 C3             2.7904    -6.4563    -1.4519 C.ar    
   4 C4             2.1387    -5.4020    -0.8466 C.ar    
   5 C5             0.7651    -5.4354    -0.6836 C.ar    
   6 C6             0.0358    -6.5250    -1.1258 C.ar    
   7 C7             0.6741    -7.5834    -1.7384 C.ar    
   8 O8             3.9576    -8.6650    -2.6950 O.2     
   9 O9             2.0454    -9.7560    -2.9775 O.3     
  10 C10            0.0601    -4.2800    -0.0210 C.3     
  11 N11           -3.3738    -4.7488     1.2281 N.am    
  12 C12           -2.2986    -4.3338     0.5372 C.2     
  13 N13           -1.0579    -4.7846     0.7800 N.am    
  14 C14           -0.8212    -5.6954     1.7492 C.2     
  15 C15           -1.9652    -6.1862     2.5395 C.ar    
  16 C16           -1.8037    -7.1227     3.5526 C.ar    
  17 C17           -2.9208    -7.5523     4.2680 C.ar    
  18 C18           -4.1885    -7.0415     3.9632 C.ar    
  19 C19           -4.3470    -6.1204     2.9666 C.ar    
  20 C20           -3.2455    -5.6804     2.2435 C.ar    
  21 C21           -2.7669    -8.5472     5.3480 C.2     
  22 N22           -3.8461    -8.9629     6.0401 N.am    
  23 O23           -1.6666    -8.9914     5.6131 O.2     
  24 C24           -3.6934    -9.9501     7.1117 C.3     
  25 C25           -7.0693   -11.4971     7.8073 C.ar    
  26 C26           -5.8401   -11.2586     7.2224 C.ar    
  27 C27           -5.0403   -10.2420     7.7215 C.ar    
  28 C28           -5.5088    -9.5005     8.7953 C.ar    
  29 C29           -6.7488    -9.7973     9.3287 C.ar    
  30 N30           -7.4829   -10.7716     8.8278 N.ar    
  31 O31            0.3051    -6.1000     1.9638 O.2     
  32 O32           -2.4565    -3.5145    -0.3470 O.2     
  33 C33            1.0421    -3.5357     0.8859 C.3     
  34 C34            2.7903   -10.8320    -3.6066 C.3     
  35 H35            3.8627    -6.4293    -1.5779 H       
  36 H36            2.7019    -4.5486    -0.4989 H       
  37 H37           -1.0360    -6.5450    -0.9948 H       
  38 H38            0.1032    -8.4311    -2.0874 H       
  39 H39           -0.3177    -3.5991    -0.7837 H       
  40 H40           -4.2489    -4.3884     1.0155 H       
  41 H41           -0.8239    -7.5141     3.7834 H       
  42 H42           -5.0494    -7.3793     4.5210 H       
  43 H43           -5.3298    -5.7339     2.7407 H       
  44 H44           -4.7239    -8.6085     5.8286 H       
  45 H45           -3.2732   -10.8688     6.7022 H       
  46 H46           -3.0258    -9.5549     7.8773 H       
  47 H47           -7.7002   -12.2843     7.4216 H       
  48 H48           -5.5068   -11.8565     6.3870 H       
  49 H49           -4.9123    -8.7014     9.2099 H       
  50 H50           -7.1210    -9.2245    10.1652 H       
  51 H51            1.4199    -4.2165     1.6487 H       
  52 H52            1.8740    -3.1602     0.2899 H       
  53 H53            0.5322    -2.7000     1.3652 H       
  54 H54            2.1033   -11.6247    -3.9028 H       
  55 H55            3.3060   -10.4502    -4.4877 H       
  56 H56            3.5207   -11.2289    -2.9016 H       
@<TRIPOS>BOND
   1    1    2 1
   2    1    8 2
   3    1    9 1
   4    2    3 ar
   5    2    7 ar
   6    3    4 ar
   7    3   35 1
   8    4    5 ar
   9    4   36 1
  10    5    6 ar
  11    5   10 1
  12    6    7 ar
  13    6   37 1
  14    7   38 1
  15    9   34 1
  16   10   13 1
  17   10   33 1
  18   10   39 1
  19   11   12 am
  20   11   20 1
  21   11   40 1
  22   12   13 am
  23   12   32 2
  24   13   14 am
  25   14   15 1
  26   14   31 2
  27   15   16 ar
  28   15   20 ar
  29   16   17 ar
  30   16   41 1
  31   17   18 ar
  32   17   21 1
  33   18   19 ar
  34   18   42 1
  35   19   20 ar
  36   19   43 1
  37   21   22 am
  38   21   23 2
  39   22   24 1
  40   22   44 1
  41   24   27 1
  42   24   45 1
  43   24   46 1
  44   25   26 ar
  45   25   30 ar
  46   25   47 1
  47   26   27 ar
  48   26   48 1
  49   27   28 ar
  50   28   29 ar
  51   28   49 1
  52   29   30 ar
  53   29   50 1
  54   33   51 1
  55   33   52 1
  56   33   53 1
  57   34   54 1
  58   34   55 1
  59   34   56 1

#	End of record

