#	Name: ASD03740219
#	Creating user name:	WinNT
#	Creation time:	15. 06. 2019 20:46

#	Modifying user name:	WinNT
#	Modification time:	15. 06. 2019 20:46

#	Program:	/corina/corina34_cracker 3.40 0067  02.08.2006

@<TRIPOS>MOLECULE
ASD03740219
  43   45    0    0    0
SMALL
NO_CHARGES


@<TRIPOS>ATOM
   1 C1            -0.0167     1.3778     0.0096 C.ar    
   2 C2             0.0021    -0.0041     0.0020 C.ar    
   3 C3             1.2107    -0.6794    -0.0131 C.ar    
   4 C4             2.3993     0.0307    -0.0206 C.ar    
   5 C5             2.3781     1.4125    -0.0130 C.ar    
   6 C6             1.1707     2.0857     0.0021 C.ar    
   7 C7             1.1489     3.5926     0.0104 C.3     
   8 C8             1.4017     4.0909     1.4099 C.2     
   9 O9             2.3548     4.7982     1.6365 O.2     
  10 O10            0.5680     3.7491     2.4049 O.3     
  11 N11            2.1913     4.1009    -0.8847 N.pl3   
  12 C12            2.0669     5.3336    -1.4409 C.2     
  13 S13            3.1933     6.1465    -2.5432 S.o     
  14 C14            2.3772     7.4691    -2.7256 C.2     
  15 C15            1.2227     7.3289    -1.9514 C.2     
  16 N16            1.0848     6.1875    -1.2881 N.2     
  17 O17            0.3800     8.2110    -1.8915 O.2     
  18 C18            2.7604     8.6578    -3.5688 C.3     
  19 C19            2.1103     8.5433    -4.9235 C.2     
  20 C20            0.9010     9.0274    -5.2592 C.2     
  21 C21            0.6901     8.6969    -6.6176 C.2     
  22 C22            1.7831     8.0306    -7.0308 C.2     
  23 O23            2.6424     7.9456    -6.0021 O.3     
  24 C24            2.0078     7.4781    -8.4147 C.3     
  25 C25            2.6926     8.5368    -9.2815 C.3     
  26 F26            1.2302    -2.0303    -0.0201 F       
  27 H27           -0.9593     1.9048     0.0169 H       
  28 H28           -0.9257    -0.5570     0.0082 H       
  29 H29            3.3426    -0.4950    -0.0321 H       
  30 H30            3.3051     1.9666    -0.0185 H       
  31 H31            0.1748     3.9437    -0.3300 H       
  32 H32            0.7712     4.0930     3.2855 H       
  33 H33            2.9704     3.5571    -1.0802 H       
  34 H34            4.1967     6.5200    -1.7292 H       
  35 H35            2.4246     9.5728    -3.0808 H       
  36 H36            3.8437     8.6855    -3.6868 H       
  37 H37            0.2213     9.5649    -4.6146 H       
  38 H38           -0.1814     8.9337    -7.2098 H       
  39 H39            2.6410     6.5930    -8.3542 H       
  40 H40            1.0492     7.2095    -8.8587 H       
  41 H41            3.6511     8.8054    -8.8375 H       
  42 H42            2.8551     8.1372   -10.2825 H       
  43 H43            2.0594     9.4219    -9.3420 H       
@<TRIPOS>BOND
   1    1    2 ar
   2    1    6 ar
   3    1   27 1
   4    2    3 ar
   5    2   28 1
   6    3    4 ar
   7    3   26 1
   8    4    5 ar
   9    4   29 1
  10    5    6 ar
  11    5   30 1
  12    6    7 1
  13    7    8 1
  14    7   11 1
  15    7   31 1
  16    8    9 2
  17    8   10 1
  18   10   32 1
  19   11   12 1
  20   11   33 1
  21   12   13 1
  22   12   16 2
  23   13   14 2
  24   13   34 1
  25   14   15 1
  26   14   18 1
  27   15   16 1
  28   15   17 2
  29   18   19 1
  30   18   35 1
  31   18   36 1
  32   19   20 2
  33   19   23 1
  34   20   21 1
  35   20   37 1
  36   21   22 2
  37   21   38 1
  38   22   23 1
  39   22   24 1
  40   24   25 1
  41   24   39 1
  42   24   40 1
  43   25   41 1
  44   25   42 1
  45   25   43 1

#	End of record

