#	Name: ASD08178269
#	Creating user name:	WinNT
#	Creation time:	15. 06. 2019 21:18

#	Modifying user name:	WinNT
#	Modification time:	15. 06. 2019 21:18

#	Program:	/corina/corina34_cracker 3.40 0067  02.08.2006

@<TRIPOS>MOLECULE
ASD08178269
  65   68    0    0    0
SMALL
NO_CHARGES


@<TRIPOS>ATOM
   1 N1            -0.0168     1.3902     0.0097 N.am    
   2 C2            -0.2008     0.0080     0.0205 C.ar    
   3 C3             0.8950    -0.8448    -0.0963 C.ar    
   4 N4            -1.4175    -0.5003     0.1474 N.ar    
   5 N5            -1.6292    -1.7661     0.1623 N.ar    
   6 C6            -0.6522    -2.6447     0.0527 C.ar    
   7 C7             0.6590    -2.2111    -0.0796 C.ar    
   8 C8            -0.9591    -4.1199     0.0771 C.3     
   9 C9            -1.7424    -4.4569     1.3474 C.3     
  10 C10           -2.0541    -5.9546     1.3721 C.3     
  11 C11           -2.8374    -6.2916     2.6425 C.3     
  12 C12           -3.1443    -7.7669     2.6669 C.2     
  13 N13           -2.4024    -8.6931     3.1859 N.2     
  14 N14           -2.8360    -9.8759     3.1044 N.2     
  15 C15           -3.9776   -10.0603     2.5129 C.2     
  16 S16           -4.5822    -8.5415     2.0005 S.3     
  17 N17           -4.6075   -11.2868     2.3308 N.am    
  18 C18           -4.0296   -12.4155     2.7875 C.2     
  19 C19           -4.7121   -13.7445     2.5901 C.3     
  20 O20           -2.9603   -12.3616     3.3573 O.2     
  21 C21           -4.7865   -14.0573     1.1178 C.ar    
  22 C22           -5.9244   -13.7392     0.4005 C.ar    
  23 C23           -5.9932   -14.0255    -0.9504 C.ar    
  24 C24           -4.9244   -14.6303    -1.5842 C.ar    
  25 C25           -3.7850   -14.9490    -0.8666 C.ar    
  26 C26           -3.7146   -14.6572     0.4838 C.ar    
  27 C27           -1.0848     2.2123     0.0180 C.2     
  28 C28           -0.8878     3.7026     0.1240 C.3     
  29 O29           -2.2044     1.7527    -0.0597 O.2     
  30 C30           -2.2294     4.3888     0.1118 C.ar    
  31 C31           -2.5293     5.3027    -0.8810 C.ar    
  32 C32           -3.7600     5.9322    -0.8922 C.ar    
  33 C33           -4.6909     5.6475     0.0893 C.ar    
  34 C34           -4.3913     4.7329     1.0816 C.ar    
  35 C35           -3.1623     4.1002     1.0903 C.ar    
  36 O36           -3.9678   -14.7659     3.2571 O.3     
  37 Cl37          -2.4422   -15.7093    -1.6619 Cl      
  38 C38           -0.1597     4.0292     1.4294 C.3     
  39 H39            0.8798     1.7601     0.0002 H       
  40 H40            1.8967    -0.4539    -0.1971 H       
  41 H41            1.4714    -2.9168    -0.1709 H       
  42 H42           -1.5550    -4.3816    -0.7974 H       
  43 H43           -0.0272    -4.6852     0.0641 H       
  44 H44           -1.1466    -4.1953     2.2218 H       
  45 H45           -2.6743    -3.8916     1.3603 H       
  46 H46           -2.6499    -6.2163     0.4977 H       
  47 H47           -1.1222    -6.5199     1.3592 H       
  48 H48           -2.2416    -6.0300     3.5169 H       
  49 H49           -3.7693    -5.7264     2.6554 H       
  50 H50           -5.4627   -11.3299     1.8750 H       
  51 H51           -5.7197   -13.7005     3.0036 H       
  52 H52           -6.7602   -13.2671     0.8955 H       
  53 H53           -6.8825   -13.7766    -1.5104 H       
  54 H54           -4.9786   -14.8545    -2.6393 H       
  55 H55           -2.8256   -14.9057     1.0444 H       
  56 H56           -0.2936     4.0515    -0.7206 H       
  57 H57           -1.8020     5.5251    -1.6478 H       
  58 H58           -3.9940     6.6467    -1.6675 H       
  59 H59           -5.6521     6.1398     0.0810 H       
  60 H60           -5.1185     4.5107     1.8486 H       
  61 H61           -2.9282     3.3857     1.8655 H       
  62 H62           -3.0595   -14.8617     2.9395 H       
  63 H63           -0.7539     3.6804     2.2740 H       
  64 H64            0.8107     3.5329     1.4382 H       
  65 H65           -0.0172     5.1072     1.5060 H       
@<TRIPOS>BOND
   1    1    2 1
   2    1   27 am
   3    1   39 1
   4    2    3 ar
   5    2    4 ar
   6    3    7 ar
   7    3   40 1
   8    4    5 ar
   9    5    6 ar
  10    6    7 ar
  11    6    8 1
  12    7   41 1
  13    8    9 1
  14    8   42 1
  15    8   43 1
  16    9   10 1
  17    9   44 1
  18    9   45 1
  19   10   11 1
  20   10   46 1
  21   10   47 1
  22   11   12 1
  23   11   48 1
  24   11   49 1
  25   12   13 2
  26   12   16 1
  27   13   14 1
  28   14   15 2
  29   15   16 1
  30   15   17 1
  31   17   18 am
  32   17   50 1
  33   18   19 1
  34   18   20 2
  35   19   21 1
  36   19   36 1
  37   19   51 1
  38   21   22 ar
  39   21   26 ar
  40   22   23 ar
  41   22   52 1
  42   23   24 ar
  43   23   53 1
  44   24   25 ar
  45   24   54 1
  46   25   26 ar
  47   25   37 1
  48   26   55 1
  49   27   28 1
  50   27   29 2
  51   28   30 1
  52   28   38 1
  53   28   56 1
  54   30   31 ar
  55   30   35 ar
  56   31   32 ar
  57   31   57 1
  58   32   33 ar
  59   32   58 1
  60   33   34 ar
  61   33   59 1
  62   34   35 ar
  63   34   60 1
  64   35   61 1
  65   36   62 1
  66   38   63 1
  67   38   64 1
  68   38   65 1

#	End of record

