#	Name: ASD05380004
#	Creating user name:	WinNT
#	Creation time:	15. 06. 2019 20:59

#	Modifying user name:	WinNT
#	Modification time:	15. 06. 2019 20:59

#	Program:	/corina/corina34_cracker 3.40 0067  02.08.2006

@<TRIPOS>MOLECULE
ASD05380004
  37   38    0    0    0
SMALL
NO_CHARGES


@<TRIPOS>ATOM
   1 C1            -0.0170     1.4045     0.0098 C.ar    
   2 C2             0.0021    -0.0041     0.0020 C.ar    
   3 C3             1.2034     2.0843     0.0018 C.ar    
   4 N4             2.3228     1.3798    -0.0127 N.ar    
   5 C5             2.3010     0.0529    -0.0196 C.ar    
   6 N6             1.1696    -0.6336    -0.0121 N.ar    
   7 N7            -1.3118    -0.3995     0.0120 N.pl3   
   8 C8            -2.0787     0.7283     0.0251 C.2     
   9 N9            -1.3192     1.7844     0.0189 N.2     
  10 C10           -1.8013    -1.7804     0.0091 C.3     
  11 O11           -3.2302    -1.7793     0.0222 O.3     
  12 C12           -3.8125    -3.0842     0.0206 C.3     
  13 C13           -5.3375    -2.9622     0.0353 C.3     
  14 Si14          -6.0967    -4.6636     0.0331 Si      
  15 C15           -5.5337    -5.5967     1.5442 C.3     
  16 Br16           1.2540     3.9746     0.0108 Br      
  17 N17            3.5026    -0.6366    -0.0353 N.pl3   
  18 C18           -7.9537    -4.5150     0.0510 C.3     
  19 C19           -5.5617    -5.5803    -1.4979 C.3     
  20 H20           -3.1586     0.7425     0.0351 H       
  21 H21           -1.4466    -2.2897    -0.8870 H       
  22 H22           -1.4302    -2.2992     0.8929 H       
  23 H23           -3.4995    -3.6206    -0.8752 H       
  24 H24           -3.4831    -3.6302     0.9047 H       
  25 H25           -5.6505    -2.4259     0.9311 H       
  26 H26           -5.6669    -2.4163    -0.8488 H       
  27 H27           -5.8467    -5.0603     2.4399 H       
  28 H28           -5.9779    -6.5921     1.5429 H       
  29 H29           -4.4473    -5.6836     1.5337 H       
  30 H30            4.3413    -0.1493    -0.0410 H       
  31 H31            3.5051    -1.6065    -0.0405 H       
  32 H32           -8.2830    -3.9691    -0.8331 H       
  33 H33           -8.3978    -5.5104     0.0498 H       
  34 H34           -8.2666    -3.9786     0.9468 H       
  35 H35           -4.4753    -5.6672    -1.5084 H       
  36 H36           -6.0059    -6.5757    -1.4992 H       
  37 H37           -5.8911    -5.0344    -2.3820 H       
@<TRIPOS>BOND
   1    1    2 ar
   2    1    3 ar
   3    1    9 1
   4    2    7 1
   5    2    6 ar
   6    3    4 ar
   7    3   16 1
   8    4    5 ar
   9    5    6 ar
  10    5   17 1
  11    7    8 1
  12    7   10 1
  13    8    9 2
  14    8   20 1
  15   10   11 1
  16   10   21 1
  17   10   22 1
  18   11   12 1
  19   12   13 1
  20   12   23 1
  21   12   24 1
  22   13   14 1
  23   13   25 1
  24   13   26 1
  25   14   15 1
  26   14   18 1
  27   14   19 1
  28   15   27 1
  29   15   28 1
  30   15   29 1
  31   17   30 1
  32   17   31 1
  33   18   32 1
  34   18   33 1
  35   18   34 1
  36   19   35 1
  37   19   36 1
  38   19   37 1

#	End of record

