#	Name: ASD05060077
#	Creating user name:	WinNT
#	Creation time:	15. 06. 2019 20:56

#	Modifying user name:	WinNT
#	Modification time:	15. 06. 2019 20:56

#	Program:	/corina/corina34_cracker 3.40 0067  02.08.2006

@<TRIPOS>MOLECULE
ASD05060077
  43   45    0    0    0
SMALL
NO_CHARGES


@<TRIPOS>ATOM
   1 C1            -0.0090     1.3754    -0.0294 C.ar    
   2 C2             0.0073    -0.0030    -0.0265 C.ar    
   3 C3             1.1746     2.0968    -0.0319 C.ar    
   4 C4             2.3915     1.4385    -0.0316 C.ar    
   5 C5             2.4197     0.0424    -0.0286 C.ar    
   6 C6             1.2200    -0.6854    -0.0256 C.ar    
   7 C7             3.5010    -0.9598    -0.0269 C.2     
   8 C8             2.8934    -2.1837    -0.0236 C.2     
   9 N9             1.5482    -2.0259    -0.0227 N.pl3   
  10 C10            0.5781    -3.1237    -0.0193 C.3     
  11 C11            0.1669    -3.4262     1.3986 C.ar    
  12 C12           -1.3541    -3.1326     3.2261 C.ar    
  13 C13           -0.5858    -3.9822     4.0032 C.ar    
  14 C14            0.5608    -4.5496     3.4802 C.ar    
  15 C15            0.9383    -4.2720     2.1777 C.ar    
  16 C16            4.9458    -0.6950    -0.0290 C.2     
  17 C17            5.8969    -1.8132    -0.0268 C.2     
  18 O18            5.3547     0.4523    -0.0324 O.2     
  19 C19            7.2271    -1.5694    -0.0287 C.2     
  20 O20            7.6816    -0.2941    -0.0325 O.3     
  21 C21            8.1858    -2.6964    -0.0266 C.2     
  22 O22            9.5110    -2.4535    -0.0284 O.3     
  23 O23            7.7782    -3.8402    -0.0231 O.2     
  24 C24           -0.9768    -2.8553     1.9229 C.ar    
  25 F25           -2.4752    -2.5783     3.7372 F       
  26 F26            2.0591    -4.8266     1.6664 F       
  27 O27            3.5516     2.1459    -0.0345 O.3     
  28 C28            3.4426     3.5708    -0.0379 C.3     
  29 H29           -0.9538     1.8986    -0.0343 H       
  30 H30           -0.9217    -0.5537    -0.0245 H       
  31 H31            1.1467     3.1765    -0.0346 H       
  32 H32            3.4079    -3.1332    -0.0217 H       
  33 H33           -0.2991    -2.8351    -0.5983 H       
  34 H34            1.0310    -4.0101    -0.4633 H       
  35 H35           -0.8821    -4.2014     5.0184 H       
  36 H36            1.1604    -5.2122     4.0867 H       
  37 H37            5.5344    -2.8305    -0.0238 H       
  38 H38            8.6458    -0.2201    -0.0336 H       
  39 H39           10.0982    -3.2219    -0.0269 H       
  40 H40           -1.5762    -2.1924     1.3166 H       
  41 H41            2.9016     3.8917    -0.9281 H       
  42 H42            2.9034     3.8960     0.8519 H       
  43 H43            4.4395     4.0114    -0.0399 H       
@<TRIPOS>BOND
   1    1    2 ar
   2    1    3 ar
   3    1   29 1
   4    2    6 ar
   5    2   30 1
   6    3    4 ar
   7    3   31 1
   8    4    5 ar
   9    4   27 1
  10    5    6 ar
  11    5    7 1
  12    6    9 1
  13    7    8 2
  14    7   16 1
  15    8    9 1
  16    8   32 1
  17    9   10 1
  18   10   11 1
  19   10   33 1
  20   10   34 1
  21   11   24 ar
  22   11   15 ar
  23   12   13 ar
  24   12   25 1
  25   12   24 ar
  26   13   14 ar
  27   13   35 1
  28   14   15 ar
  29   14   36 1
  30   15   26 1
  31   16   17 1
  32   16   18 2
  33   17   19 2
  34   17   37 1
  35   19   20 1
  36   19   21 1
  37   20   38 1
  38   21   22 1
  39   21   23 2
  40   22   39 1
  41   24   40 1
  42   27   28 1
  43   28   41 1
  44   28   42 1
  45   28   43 1

#	End of record

