#	Name: ASD01530032
#	Creating user name:	WinNT
#	Creation time:	15. 06. 2019 19:22

#	Modifying user name:	WinNT
#	Modification time:	15. 06. 2019 19:22

#	Program:	/corina/corina34_cracker 3.40 0067  02.08.2006

@<TRIPOS>MOLECULE
ASD01530032
  23   24    0    0    0
SMALL
NO_CHARGES


@<TRIPOS>ATOM
   1 C1            -0.0169     1.3960     0.0097 C.ar    
   2 C2             0.0021    -0.0041     0.0020 C.ar    
   3 C3             1.1938    -0.6688    -0.0129 C.ar    
   4 C4             2.3947     0.0281    -0.0207 C.ar    
   5 C5             2.4018     1.4057    -0.0133 C.ar    
   6 C6             1.1988     2.1001     0.0019 C.ar    
   7 N7            -1.0186     2.3083     0.0296 N.2     
   8 N8            -0.5366     3.5009     0.0287 N.2     
   9 N9             0.8647     3.4395     0.0123 N.am    
  10 C10            1.7174     4.4832     0.0072 C.2     
  11 O11            1.2407     5.7415     0.0178 O.3     
  12 O12            2.9158     4.2880    -0.0071 O.2     
  13 C13            2.2169     6.8163     0.0115 C.3     
  14 C14            1.4922     8.1637     0.0253 C.3     
  15 H15           -0.9254    -0.5573     0.0083 H       
  16 H16            1.2029    -1.7487    -0.0185 H       
  17 H17            3.3292    -0.5133    -0.0321 H       
  18 H18            3.3384     1.9434    -0.0190 H       
  19 H19            2.8515     6.7360     0.8941 H       
  20 H20            2.8316     6.7436    -0.8857 H       
  21 H21            0.8576     8.2440    -0.8573 H       
  22 H22            0.8775     8.2364     0.9225 H       
  23 H23            2.2250     8.9705     0.0205 H       
@<TRIPOS>BOND
   1    1    2 ar
   2    1    6 ar
   3    1    7 1
   4    2    3 ar
   5    2   15 1
   6    3    4 ar
   7    3   16 1
   8    4    5 ar
   9    4   17 1
  10    5    6 ar
  11    5   18 1
  12    6    9 1
  13    7    8 2
  14    8    9 1
  15    9   10 am
  16   10   11 1
  17   10   12 2
  18   11   13 1
  19   13   14 1
  20   13   19 1
  21   13   20 1
  22   14   21 1
  23   14   22 1
  24   14   23 1

#	End of record

