#	Name: ASD03730332
#	Creating user name:	WinNT
#	Creation time:	15. 06. 2019 20:44

#	Modifying user name:	WinNT
#	Modification time:	15. 06. 2019 20:44

#	Program:	/corina/corina34_cracker 3.40 0067  02.08.2006

@<TRIPOS>MOLECULE
ASD03730332
  67   72    0    0    0
SMALL
NO_CHARGES


@<TRIPOS>ATOM
   1 C1             2.1542    -1.6084    -2.5112 C.2     
   2 C2             2.2539    -1.2328    -1.0847 C.ar    
   3 C3             3.4519    -0.7301    -0.5742 C.ar    
   4 C4             3.5380    -0.3811     0.7575 C.ar    
   5 C5             2.4403    -0.5289     1.5871 C.ar    
   6 C6             1.2502    -1.0265     1.0875 C.ar    
   7 C7             1.1489    -1.3740    -0.2440 C.ar    
   8 O8             2.4955    -0.8213    -3.3722 O.2     
   9 N9             1.6901    -2.8257    -2.8567 N.am    
  10 C10            4.6486    -0.5694    -1.4759 C.3     
  11 O11            6.1651     0.0645     5.5233 O.3     
  12 C12            7.0121     0.4673     6.6158 C.3     
  13 O13            8.3399     0.1626     6.1498 O.3     
  14 C14            8.2756     0.2368     4.7878 C.ar    
  15 C15            6.9382     0.1754     4.4031 C.ar    
  16 C16            9.2662     0.3548     3.8294 C.ar    
  17 C17            8.9372     0.4111     2.4785 C.ar    
  18 C18            7.5982     0.3405     2.1060 C.ar    
  19 C19            6.6078     0.2290     3.0595 C.ar    
  20 O20            9.7468     0.5421     1.3887 O.3     
  21 C21            7.5678     0.3971     0.6021 C.3     
  22 C22            9.0275     0.1305     0.2102 C.3     
  23 N23            5.7412     0.0598    -0.7299 N.am    
  24 C24            6.6351    -0.6221     0.0138 C.2     
  25 C25            7.0839     1.7214     0.0903 C.ar    
  26 C26            7.5077     3.0203     0.2623 C.ar    
  27 C27            6.8352     4.0568    -0.3602 C.ar    
  28 C28            5.7363     3.7852    -1.1549 C.ar    
  29 C29            5.3074     2.4859    -1.3295 C.ar    
  30 C30            5.9785     1.4363    -0.7070 C.ar    
  31 O31            6.6778    -1.8233     0.1758 O.2     
  32 C32            1.4542    -3.1466    -4.2665 C.3     
  33 C33            2.1889    -4.4399    -4.6250 C.3     
  34 C34           -0.0462    -3.3299    -4.5036 C.3     
  35 C35            1.4217    -3.8279    -1.8224 C.3     
  36 C36            1.3119    -5.2106    -2.4683 C.3     
  37 C37            2.5643    -3.8296    -0.8050 C.3     
  38 H38            4.4643     0.0080     1.1537 H       
  39 H39            2.5132    -0.2548     2.6292 H       
  40 H40            0.3971    -1.1394     1.7402 H       
  41 H41            0.2180    -1.7585    -0.6337 H       
  42 H42            4.9688    -1.5483    -1.8326 H       
  43 H43            4.3811     0.0576    -2.3264 H       
  44 H44            6.9090     1.5355     6.8066 H       
  45 H45            6.7797    -0.1071     7.5125 H       
  46 H46           10.3019     0.4035     4.1317 H       
  47 H47            5.5720     0.1831     2.7572 H       
  48 H48            9.3143     0.7360    -0.6495 H       
  49 H49            9.1872    -0.9289     0.0095 H       
  50 H50            8.3659     3.2301     0.8835 H       
  51 H51            7.1677     5.0755    -0.2263 H       
  52 H52            5.2112     4.5943    -1.6408 H       
  53 H53            4.4481     2.2819    -1.9511 H       
  54 H54            1.8240    -2.3335    -4.8910 H       
  55 H55            1.5635    -5.2956    -4.3707 H       
  56 H56            2.4034    -4.4515    -5.6937 H       
  57 H57            3.1232    -4.4938    -4.0663 H       
  58 H58           -0.5606    -2.3861    -4.3225 H       
  59 H59           -0.2155    -3.6443    -5.5334 H       
  60 H60           -0.4313    -4.0899    -3.8237 H       
  61 H61            0.4860    -3.5874    -1.3176 H       
  62 H62            2.2331    -5.4344    -3.0063 H       
  63 H63            1.1514    -5.9613    -1.6946 H       
  64 H64            0.4730    -5.2209    -3.1642 H       
  65 H65            2.4998    -2.9356    -0.1847 H       
  66 H66            2.4882    -4.7155    -0.1745 H       
  67 H67            3.5190    -3.8388    -1.3308 H       
@<TRIPOS>BOND
   1    1    2 1
   2    1    8 2
   3    1    9 am
   4    2    3 ar
   5    2    7 ar
   6    3    4 ar
   7    3   10 1
   8    4    5 ar
   9    4   38 1
  10    5    6 ar
  11    5   39 1
  12    6    7 ar
  13    6   40 1
  14    7   41 1
  15    9   32 1
  16    9   35 1
  17   10   23 1
  18   10   42 1
  19   10   43 1
  20   11   12 1
  21   11   15 1
  22   12   13 1
  23   12   44 1
  24   12   45 1
  25   13   14 1
  26   14   15 ar
  27   14   16 ar
  28   15   19 ar
  29   16   17 ar
  30   16   46 1
  31   17   18 ar
  32   17   20 1
  33   18   19 ar
  34   18   21 1
  35   19   47 1
  36   20   22 1
  37   21   22 1
  38   21   24 1
  39   21   25 1
  40   22   48 1
  41   22   49 1
  42   23   24 am
  43   23   30 1
  44   24   31 2
  45   25   26 ar
  46   25   30 ar
  47   26   27 ar
  48   26   50 1
  49   27   28 ar
  50   27   51 1
  51   28   29 ar
  52   28   52 1
  53   29   30 ar
  54   29   53 1
  55   32   33 1
  56   32   34 1
  57   32   54 1
  58   33   55 1
  59   33   56 1
  60   33   57 1
  61   34   58 1
  62   34   59 1
  63   34   60 1
  64   35   36 1
  65   35   37 1
  66   35   61 1
  67   36   62 1
  68   36   63 1
  69   36   64 1
  70   37   65 1
  71   37   66 1
  72   37   67 1

#	End of record

