#	Name: ASD03470011
#	Creating user name:	WinNT
#	Creation time:	15. 06. 2019 20:42

#	Modifying user name:	WinNT
#	Modification time:	15. 06. 2019 20:42

#	Program:	/corina/corina34_cracker 3.40 0067  02.08.2006

@<TRIPOS>MOLECULE
ASD03470011
 126  126    0    0    0
SMALL
NO_CHARGES


@<TRIPOS>ATOM
   1 N1            -1.6026     5.5442     2.1832 N.am    
   2 C2            -1.9894     4.3890     1.3420 C.3     
   3 C3            -2.8478     3.4611     2.1625 C.2     
   4 O4            -3.5872     3.9020     3.0167 O.2     
   5 C5            -2.7798     4.8801     0.1275 C.3     
   6 O6            -1.9335     5.6815    -0.6993 O.3     
   7 N7            -2.7820     2.1214     1.9312 N.am    
   8 C8            -3.6474     1.2635     2.7647 C.3     
   9 C9            -2.8219     0.1318     3.3203 C.2     
  10 O10           -1.8790    -0.3087     2.6975 O.2     
  11 C11           -4.2292     2.0867     3.9157 C.3     
  12 C12           -5.2800     3.0555     3.3696 C.3     
  13 C13           -6.5100     2.2689     2.9121 C.3     
  14 C14           -5.6843     4.0413     4.4676 C.3     
  15 N15           -3.1550    -0.3885     4.5386 N.am    
  16 C16           -2.2962    -1.4973     5.0126 C.3     
  17 C17           -1.8375    -1.1863     6.4141 C.2     
  18 O18           -2.5582    -0.5772     7.1759 O.2     
  19 C19           -3.0951    -2.8021     5.0116 C.3     
  20 C20           -3.4705    -3.1691     3.5745 C.3     
  21 C21           -4.2695    -4.4739     3.5734 C.3     
  22 C22           -4.6449    -4.8409     2.1363 C.3     
  23 N23           -5.4120    -6.0937     2.1352 N.3     
  24 N24           -0.6032    -1.5989     6.8131 N.am    
  25 C25           -0.2107    -1.2664     8.1970 C.3     
  26 C26            1.1754    -0.6751     8.1817 C.2     
  27 O27            1.9822    -1.0139     7.3419 O.2     
  28 C28           -1.1952    -0.2498     8.7787 C.3     
  29 C29           -1.3728     0.9086     7.7952 C.3     
  30 C30           -2.5460    -0.9273     9.0180 C.3     
  31 C31           -2.6620     1.6639     8.1243 C.3     
  32 N32            1.5061     0.2497     9.1310 N.am    
  33 C33            2.8857     0.7801     9.0482 C.3     
  34 C34            2.8257     2.2857     9.0740 C.2     
  35 O35            1.9691     2.8560     9.7159 O.2     
  36 C36            3.7012     0.2783    10.2416 C.3     
  37 C37            3.8458    -1.2193    10.1570 C.2     
  38 O38            3.3478    -1.8234     9.2366 O.2     
  39 O39            4.5280    -1.8823    11.1040 O.3     
  40 N40            3.7465     2.9968     8.3673 N.am    
  41 C41            3.6382     4.4676     8.4331 C.3     
  42 C42            3.7185     5.0252     7.0353 C.2     
  43 O43            4.3563     4.4523     6.1775 O.2     
  44 C44            2.2990     4.8553     9.0634 C.3     
  45 C45            1.1727     4.2880     8.2384 C.2     
  46 N46           -0.1064     4.5225     8.5926 N.am    
  47 O47            1.4172     3.6204     7.2559 O.2     
  48 N48            3.0600     6.1881     6.7526 N.am    
  49 C49            3.1895     6.6692     5.3585 C.3     
  50 C50            1.8112     6.9384     4.8117 C.2     
  51 O51            0.9260     7.3309     5.5419 O.2     
  52 C52            4.0122     7.9590     5.3348 C.3     
  53 C53            5.4413     7.6609     5.7927 C.3     
  54 C54            6.2516     8.9312     5.7693 C.2     
  55 O55            7.5432     8.9103     6.1344 O.3     
  56 O56            5.7387     9.9686     5.4220 O.2     
  57 N57            1.5734     6.7344     3.4871 N.am    
  58 C58            0.2049     7.0164     3.0103 C.3     
  59 C59           -0.2718     5.8520     2.1808 C.2     
  60 O60            0.5117     5.2006     1.5230 O.2     
  61 C61           -0.7264     7.2069     4.2092 C.3     
  62 C62           -0.7380     5.9503     5.0410 C.2     
  63 O63           -1.4264     5.9142     6.1927 O.3     
  64 O64           -0.1277     4.9753     4.6711 O.2     
  65 H65           -2.2506     6.0504     2.6978 H       
  66 H66           -1.0945     3.8639     1.0080 H       
  67 H67           -3.1392     4.0235    -0.4427 H       
  68 H68           -3.6290     5.4754     0.4631 H       
  69 H69           -2.3695     6.0277    -1.4900 H       
  70 H70           -2.1966     1.7493     1.2532 H       
  71 H71           -4.4569     0.8604     2.1560 H       
  72 H72           -4.6931     1.4190     4.6417 H       
  73 H73           -3.4312     2.6506     4.3987 H       
  74 H74           -4.8642     3.6037     2.5242 H       
  75 H75           -7.2586     2.9591     2.5231 H       
  76 H76           -6.2220     1.5666     2.1299 H       
  77 H77           -6.9258     1.7207     3.7575 H       
  78 H78           -4.8080     4.6016     4.7935 H       
  79 H79           -6.4329     4.7315     4.0786 H       
  80 H80           -6.1001     3.4930     5.3130 H       
  81 H81           -3.9030    -0.0541     5.0578 H       
  82 H82           -1.4304    -1.5951     4.3577 H       
  83 H83           -2.4899    -3.5990     5.4438 H       
  84 H84           -4.0020    -2.6734     5.6024 H       
  85 H85           -4.0757    -2.3722     3.1422 H       
  86 H86           -2.5637    -3.2978     2.9836 H       
  87 H87           -3.6643    -5.2708     4.0056 H       
  88 H88           -5.1763    -4.3452     4.1642 H       
  89 H89           -5.2500    -4.0440     1.7041 H       
  90 H90           -3.7380    -4.9696     1.5454 H       
  91 H91           -6.2247    -6.0205     2.7287 H       
  92 H92           -5.6720    -6.3577     1.1968 H       
  93 H93           -0.0119    -2.0866     6.2188 H       
  94 H94           -0.2173    -2.1706     8.8056 H       
  95 H95           -0.8076     0.1317     9.7233 H       
  96 H96           -0.5235     1.5871     7.8758 H       
  97 H97           -1.4301     0.5173     6.7794 H       
  98 H98           -2.5127    -1.4832     9.9550 H       
  99 H99           -3.3278    -0.1698     9.0726 H       
 100 H100          -2.7598    -1.6116     8.1970 H       
 101 H101          -3.5113     0.9854     8.0437 H       
 102 H102          -2.6047     2.0552     9.1400 H       
 103 H103          -2.7885     2.4892     7.4236 H       
 104 H104           0.8796     0.5393     9.8126 H       
 105 H105           3.3510     0.4460     8.1209 H       
 106 H106           4.6884     0.7401    10.2270 H       
 107 H107           3.1903     0.5423    11.1675 H       
 108 H108           4.5938    -2.8422    11.0070 H       
 109 H109           4.4387     2.5593     7.8473 H       
 110 H110           4.4543     4.8673     9.0350 H       
 111 H111           2.2448     4.4556    10.0760 H       
 112 H112           2.2139     5.9415     9.0964 H       
 113 H113          -0.3020     5.0564     9.3784 H       
 114 H114          -0.8314     4.1573     8.0616 H       
 115 H115           2.5427     6.6659     7.4197 H       
 116 H116           3.6810     5.9078     4.7530 H       
 117 H117           4.0315     8.3590     4.3210 H       
 118 H118           3.5609     8.6902     6.0054 H       
 119 H119           5.4220     7.2608     6.8065 H       
 120 H120           5.8926     6.9296     5.1221 H       
 121 H121           8.0219     9.7499     6.1030 H       
 122 H122           2.2677     6.4202     2.8870 H       
 123 H123           0.2093     7.9207     2.4018 H       
 124 H124          -0.3723     8.0407     4.8155 H       
 125 H125          -1.7356     7.4178     3.8554 H       
 126 H126          -1.4041     5.0862     6.6917 H       
@<TRIPOS>BOND
   1    1    2 1
   2    1   59 am
   3    1   65 1
   4    2    5 1
   5    2    3 1
   6    2   66 1
   7    3    4 2
   8    3    7 am
   9    5    6 1
  10    5   67 1
  11    5   68 1
  12    6   69 1
  13    7    8 1
  14    7   70 1
  15    8    9 1
  16    8   11 1
  17    8   71 1
  18    9   10 2
  19    9   15 am
  20   11   12 1
  21   11   72 1
  22   11   73 1
  23   12   13 1
  24   12   14 1
  25   12   74 1
  26   13   75 1
  27   13   76 1
  28   13   77 1
  29   14   78 1
  30   14   79 1
  31   14   80 1
  32   15   16 1
  33   15   81 1
  34   16   17 1
  35   16   19 1
  36   16   82 1
  37   17   24 am
  38   17   18 2
  39   19   20 1
  40   19   83 1
  41   19   84 1
  42   20   21 1
  43   20   85 1
  44   20   86 1
  45   21   22 1
  46   21   87 1
  47   21   88 1
  48   22   23 1
  49   22   89 1
  50   22   90 1
  51   23   91 1
  52   23   92 1
  53   24   25 1
  54   24   93 1
  55   25   28 1
  56   25   26 1
  57   25   94 1
  58   26   32 am
  59   26   27 2
  60   28   29 1
  61   28   30 1
  62   28   95 1
  63   29   31 1
  64   29   96 1
  65   29   97 1
  66   30   98 1
  67   30   99 1
  68   30  100 1
  69   31  101 1
  70   31  102 1
  71   31  103 1
  72   32   33 1
  73   32  104 1
  74   33   36 1
  75   33   34 1
  76   33  105 1
  77   34   40 am
  78   34   35 2
  79   36   37 1
  80   36  106 1
  81   36  107 1
  82   37   38 2
  83   37   39 1
  84   39  108 1
  85   40   41 1
  86   40  109 1
  87   41   44 1
  88   41   42 1
  89   41  110 1
  90   42   43 2
  91   42   48 am
  92   44   45 1
  93   44  111 1
  94   44  112 1
  95   45   46 am
  96   45   47 2
  97   46  113 1
  98   46  114 1
  99   48   49 1
 100   48  115 1
 101   49   50 1
 102   49   52 1
 103   49  116 1
 104   50   51 2
 105   50   57 am
 106   52   53 1
 107   52  117 1
 108   52  118 1
 109   53   54 1
 110   53  119 1
 111   53  120 1
 112   54   56 2
 113   54   55 1
 114   55  121 1
 115   57   58 1
 116   57  122 1
 117   58   59 1
 118   58   61 1
 119   58  123 1
 120   59   60 2
 121   61   62 1
 122   61  124 1
 123   61  125 1
 124   62   63 1
 125   62   64 2
 126   63  126 1

#	End of record

