#	Name: ASD03731803
#	Creating user name:	WinNT
#	Creation time:	15. 06. 2019 20:46

#	Modifying user name:	WinNT
#	Modification time:	15. 06. 2019 20:46

#	Program:	/corina/corina34_cracker 3.40 0067  02.08.2006

@<TRIPOS>MOLECULE
ASD03731803
  38   39    0    0    0
SMALL
NO_CHARGES


@<TRIPOS>ATOM
   1 C1             0.0451     1.4457     0.5265 C.2     
   2 C2             0.0485    -0.0235     0.3819 C.ar    
   3 C3             1.2528    -0.7043     0.2132 C.ar    
   4 C4             1.2503    -2.0903     0.0777 C.ar    
   5 C5             0.0340    -2.7917     0.1122 C.ar    
   6 C6            -1.1601    -2.1029     0.2809 C.ar    
   7 C7            -1.1568    -0.7329     0.4202 C.ar    
   8 O8             1.0929     2.0617     0.4984 O.2     
   9 N9            -1.1200     2.1046     0.6842 N.am    
  10 S10           -1.1238     3.7527     0.8464 S.o2    
  11 O11           -2.4952     4.0851     1.0144 O.2     
  12 O12           -0.1773     4.0057     1.8756 O.2     
  13 C13           -0.5108     4.3657    -0.7470 C.3     
  14 O14            0.0255    -4.1403    -0.0195 O.3     
  15 C15           -1.1662    -4.7852     0.0931 C.ar    
  16 C16           -1.9885    -4.9311    -1.0209 C.ar    
  17 C17           -3.2015    -5.5894    -0.9010 C.ar    
  18 C18           -3.5932    -6.0998     0.3230 C.ar    
  19 C19           -2.7771    -5.9545     1.4291 C.ar    
  20 C20           -1.5625    -5.3036     1.3154 C.ar    
  21 O21           -1.6021    -4.4283    -2.2238 O.3     
  22 C22           -2.4963    -4.6153    -3.3226 C.3     
  23 C23            2.4831    -2.7976    -0.0966 C.1     
  24 N24            3.4611    -3.3588    -0.2348 N.1     
  25 H25            2.1846    -0.1589     0.1871 H       
  26 H26           -2.0944    -2.6441     0.3072 H       
  27 H27           -2.0885    -0.2036     0.5552 H       
  28 H28           -1.9563     1.6135     0.7027 H       
  29 H29           -1.1759     4.0337    -1.5443 H       
  30 H30           -0.4800     5.4551    -0.7297 H       
  31 H31            0.4917     3.9766    -0.9247 H       
  32 H32           -3.8414    -5.7037    -1.7634 H       
  33 H33           -4.5391    -6.6128     0.4151 H       
  34 H34           -3.0870    -6.3540     2.3835 H       
  35 H35           -0.9246    -5.1957     2.1802 H       
  36 H36           -2.6517    -5.6816    -3.4872 H       
  37 H37           -3.4510    -4.1392    -3.0992 H       
  38 H38           -2.0682    -4.1678    -4.2196 H       
@<TRIPOS>BOND
   1    1    2 1
   2    1    8 2
   3    1    9 am
   4    2    3 ar
   5    2    7 ar
   6    3    4 ar
   7    3   25 1
   8    4    5 ar
   9    4   23 1
  10    5    6 ar
  11    5   14 1
  12    6    7 ar
  13    6   26 1
  14    7   27 1
  15    9   10 am
  16    9   28 1
  17   10   11 2
  18   10   12 2
  19   10   13 1
  20   13   29 1
  21   13   30 1
  22   13   31 1
  23   14   15 1
  24   15   16 ar
  25   15   20 ar
  26   16   17 ar
  27   16   21 1
  28   17   18 ar
  29   17   32 1
  30   18   19 ar
  31   18   33 1
  32   19   20 ar
  33   19   34 1
  34   20   35 1
  35   21   22 1
  36   22   36 1
  37   22   37 1
  38   22   38 1
  39   23   24 3

#	End of record

