#	Name: ASD05430076
#	Creating user name:	WinNT
#	Creation time:	15. 06. 2019 20:59

#	Modifying user name:	WinNT
#	Modification time:	15. 06. 2019 20:59

#	Program:	/corina/corina34_cracker 3.40 0067  02.08.2006

@<TRIPOS>MOLECULE
ASD05430076
  66   72    0    0    0
SMALL
NO_CHARGES


@<TRIPOS>ATOM
   1 C1             0.0655     1.1605     0.4323 C.ar    
   2 C2             0.0186    -0.0096    -0.3343 C.ar    
   3 C3             1.1536    -0.4666    -0.9841 C.ar    
   4 C4             2.3418     0.2300    -0.8801 C.ar    
   5 C5             2.4131     1.3950    -0.1237 C.ar    
   6 C6             1.2556     1.8804     0.5512 C.ar    
   7 C7             4.8626    -0.0582     0.2042 C.3     
   8 C8             4.8463     1.4482     0.0663 C.2     
   9 C9             3.6824     2.1260    -0.0208 C.2     
  10 C10            6.1973    -0.5006     0.8112 C.3     
  11 C11            6.8960     0.5199     1.7165 C.3     
  12 N12            7.1103     1.7541     0.9579 N.pl3   
  13 C13            6.1366     2.1513     0.0306 C.2     
  14 N14           -1.1818    -0.7223    -0.4448 N.pl3   
  15 N15           -2.4127    -0.3954     0.1472 N.2     
  16 C16           -3.2630    -1.3218    -0.2121 C.2     
  17 N17           -2.6389    -2.2050    -0.9907 N.2     
  18 C18           -1.3874    -1.8550    -1.1449 C.2     
  19 C19           -4.7141    -1.3814     0.1901 C.3     
  20 C20           -0.0481     3.1970     1.8237 C.2     
  21 S21           -1.1735     2.0006     1.3603 S.3     
  22 C22            8.2932     2.5886     1.1683 C.3     
  23 C23            8.7878     3.0982    -0.1900 C.3     
  24 N24            7.6587     3.6487    -0.9438 N.pl3   
  25 N25            6.3846     3.0794    -0.8410 N.2     
  26 C26            7.9352     3.7595     2.0469 C.ar    
  27 C27            8.9000     4.6904     2.3842 C.ar    
  28 C28            6.6409     3.9050     2.5103 C.ar    
  29 C29            6.3112     4.9789     3.3153 C.ar    
  30 C30            7.2779     5.9090     3.6581 C.ar    
  31 C31            8.5727     5.7648     3.1894 C.ar    
  32 F32            6.9567     6.9591     4.4450 F       
  33 C33            9.3926     1.7604     1.8364 C.3     
  34 C34            6.3438    -1.9789     1.1807 C.3     
  35 C35            7.0863    -1.4161    -0.0328 C.3     
  36 N36            1.1083     2.9700     1.3225 N.2     
  37 O37           -5.5036    -0.6752    -0.7691 O.3     
  38 C38           -6.9030    -0.6708    -0.4799 C.3     
  39 H39            1.1093    -1.3706    -1.5735 H       
  40 H40            3.2222    -0.1328    -1.3896 H       
  41 H41            4.0460    -0.3725     0.8542 H       
  42 H42            4.7413    -0.5143    -0.7783 H       
  43 H43            3.6846     3.2060    -0.0148 H       
  44 H44            6.2695     0.7283     2.5838 H       
  45 H45            7.8561     0.1210     2.0440 H       
  46 H46           -0.6471    -2.3851    -1.7258 H       
  47 H47           -5.0372    -2.4216     0.2315 H       
  48 H48           -4.8383    -0.9230     1.1711 H       
  49 H49           -0.2825     4.0408     2.4558 H       
  50 H50            9.5359     3.8758    -0.0362 H       
  51 H51            9.2301     2.2733    -0.7486 H       
  52 H52            7.7959     4.4165    -1.5206 H       
  53 H53            9.9099     4.5778     2.0185 H       
  54 H54            5.8870     3.1794     2.2428 H       
  55 H55            5.2998     5.0927     3.6766 H       
  56 H56            9.3277     6.4895     3.4564 H       
  57 H57            9.6528     0.9179     1.1957 H       
  58 H58           10.2730     2.3838     1.9924 H       
  59 H59            9.0351     1.3896     2.7970 H       
  60 H60            6.9342    -2.2207     2.0644 H       
  61 H61            5.4919    -2.6319     0.9911 H       
  62 H62            6.7231    -1.6990    -1.0208 H       
  63 H63            8.1654    -1.2878     0.0525 H       
  64 H64           -7.4323    -0.1152    -1.2540 H       
  65 H65           -7.2716    -1.6962    -0.4523 H       
  66 H66           -7.0726    -0.1976     0.4873 H       
@<TRIPOS>BOND
   1    1    2 ar
   2    1    6 ar
   3    1   21 1
   4    2    3 ar
   5    2   14 1
   6    3    4 ar
   7    3   39 1
   8    4    5 ar
   9    4   40 1
  10    5    6 ar
  11    5    9 1
  12    6   36 1
  13    7    8 1
  14    7   10 1
  15    7   41 1
  16    7   42 1
  17    8    9 2
  18    8   13 1
  19    9   43 1
  20   10   11 1
  21   10   34 1
  22   10   35 1
  23   11   12 1
  24   11   44 1
  25   11   45 1
  26   12   13 1
  27   12   22 1
  28   13   25 2
  29   14   15 1
  30   14   18 1
  31   15   16 2
  32   16   17 1
  33   16   19 1
  34   17   18 2
  35   18   46 1
  36   19   37 1
  37   19   47 1
  38   19   48 1
  39   20   21 1
  40   20   36 2
  41   20   49 1
  42   22   23 1
  43   22   26 1
  44   22   33 1
  45   23   24 1
  46   23   50 1
  47   23   51 1
  48   24   25 1
  49   24   52 1
  50   26   27 ar
  51   26   28 ar
  52   27   31 ar
  53   27   53 1
  54   28   29 ar
  55   28   54 1
  56   29   30 ar
  57   29   55 1
  58   30   31 ar
  59   30   32 1
  60   31   56 1
  61   33   57 1
  62   33   58 1
  63   33   59 1
  64   34   35 1
  65   34   60 1
  66   34   61 1
  67   35   62 1
  68   35   63 1
  69   37   38 1
  70   38   64 1
  71   38   65 1
  72   38   66 1

#	End of record

