#	Name: ASD04590005
#	Creating user name:	WinNT
#	Creation time:	15. 06. 2019 20:50

#	Modifying user name:	WinNT
#	Modification time:	15. 06. 2019 20:50

#	Program:	/corina/corina34_cracker 3.40 0067  02.08.2006

@<TRIPOS>MOLECULE
ASD04590005
  83   83    0    0    0
SMALL
NO_CHARGES


@<TRIPOS>ATOM
   1 P1            -0.0189     1.5408     0.0105 P.3     
   2 O2             0.0021    -0.0041     0.0020 O.co2   
   3 O3             1.4306     2.0755    -0.0005 O.co2   
   4 O4            -0.7976     2.0741    -1.2938 O.3     
   5 O5            -0.7725     2.0600     1.3351 O.3     
   6 C6            -0.3180     1.8698    -2.6244 C.3     
   7 C7            -1.3518     1.0723    -3.4245 C.3     
   8 C8            -0.0967     3.2249    -3.3026 C.3     
   9 C9             0.3404     2.9985    -4.7515 C.3     
  10 N10           -0.7011     2.2543    -5.4699 N.4     
  11 C11           -0.8683     0.9257    -4.8689 C.3     
  12 C12           -4.5456     5.5493    23.1417 C.3     
  13 C13           -3.5898     4.9293    22.1204 C.3     
  14 C14           -4.1303     5.1633    20.7084 C.3     
  15 C15           -3.1745     4.5433    19.6871 C.3     
  16 C16           -3.7151     4.7773    18.2750 C.3     
  17 C17           -2.7592     4.1573    17.2538 C.3     
  18 C18           -3.2998     4.3913    15.8417 C.3     
  19 C19           -2.3439     3.7714    14.8205 C.3     
  20 C20           -2.8845     4.0053    13.4084 C.3     
  21 C21           -1.9287     3.3854    12.3872 C.3     
  22 C22           -2.4692     3.6194    10.9751 C.3     
  23 C23           -1.5134     2.9994     9.9539 C.3     
  24 C24           -2.0540     3.2334     8.5418 C.3     
  25 C25           -1.0981     2.6134     7.5206 C.3     
  26 C26           -1.6387     2.8474     6.1085 C.3     
  27 C27           -0.6828     2.2274     5.0873 C.3     
  28 C28           -1.2234     2.4614     3.6752 C.3     
  29 C29           -0.2676     1.8415     2.6540 C.3     
  30 C30           -1.9701     2.9898    -5.3895 C.3     
  31 C31           -0.3121     2.1074    -6.8789 C.3     
  32 H32            0.6221     1.3190    -2.5924 H       
  33 H33           -1.4736     0.0848    -2.9795 H       
  34 H34           -2.3065     1.5982    -3.4119 H       
  35 H35           -1.0252     3.7955    -3.2875 H       
  36 H36            0.6787     3.7760    -2.7705 H       
  37 H37            0.4990     3.9613    -5.2373 H       
  38 H38            1.2691     2.4281    -4.7655 H       
  39 H39            0.0862     0.3995    -4.8804 H       
  40 H40           -1.6020     0.3582    -5.4414 H       
  41 H41           -4.1605     5.3826    24.1476 H       
  42 H42           -4.6293     6.6203    22.9575 H       
  43 H43           -5.5280     5.0865    23.0474 H       
  44 H44           -2.6074     5.3920    22.2147 H       
  45 H45           -3.5061     3.8582    22.3046 H       
  46 H46           -5.1127     4.7006    20.6141 H       
  47 H47           -4.2140     6.2343    20.5242 H       
  48 H48           -2.1921     5.0060    19.7814 H       
  49 H49           -3.0908     3.4723    19.8713 H       
  50 H50           -4.6975     4.3146    18.1808 H       
  51 H51           -3.7987     5.8484    18.0909 H       
  52 H52           -1.7768     4.6201    17.3481 H       
  53 H53           -2.6755     3.0863    17.4380 H       
  54 H54           -4.2822     3.9286    15.7475 H       
  55 H55           -3.3835     5.4624    15.6576 H       
  56 H56           -1.3615     4.2341    14.9148 H       
  57 H57           -2.2603     2.7003    15.0047 H       
  58 H58           -3.8669     3.5426    13.3142 H       
  59 H59           -2.9682     5.0764    13.2243 H       
  60 H60           -0.9463     3.8481    12.4815 H       
  61 H61           -1.8450     2.3143    12.5714 H       
  62 H62           -3.4516     3.1566    10.8809 H       
  63 H63           -2.5529     4.6904    10.7910 H       
  64 H64           -0.5310     3.4621    10.0482 H       
  65 H65           -1.4297     1.9283    10.1381 H       
  66 H66           -3.0364     2.7707     8.4476 H       
  67 H67           -2.1376     4.3044     8.3577 H       
  68 H68           -0.1157     3.0761     7.6149 H       
  69 H69           -1.0144     1.5424     7.7048 H       
  70 H70           -2.6211     2.3847     6.0143 H       
  71 H71           -1.7224     3.9185     5.9244 H       
  72 H72            0.2996     2.6902     5.1816 H       
  73 H73           -0.5992     1.1564     5.2715 H       
  74 H74           -2.2058     1.9987     3.5810 H       
  75 H75           -1.3071     3.5325     3.4910 H       
  76 H76           -0.1839     0.7704     2.8382 H       
  77 H77            0.7148     2.3042     2.7482 H       
  78 H78           -1.8489     3.9742    -5.8415 H       
  79 H79           -2.7443     2.4380    -5.9227 H       
  80 H80           -2.2589     3.1029    -4.3446 H       
  81 H81            0.6311     1.5647    -6.9407 H       
  82 H82           -1.0849     1.5548    -7.4134 H       
  83 H83           -0.1941     3.0935    -7.3280 H       
@<TRIPOS>BOND
   1    1    2 ar
   2    1    3 ar
   3    1    4 1
   4    1    5 1
   5    4    6 1
   6    5   29 1
   7    6    7 1
   8    6    8 1
   9    6   32 1
  10    7   11 1
  11    7   33 1
  12    7   34 1
  13    8    9 1
  14    8   35 1
  15    8   36 1
  16    9   10 1
  17    9   37 1
  18    9   38 1
  19   10   11 1
  20   10   30 1
  21   10   31 1
  22   11   39 1
  23   11   40 1
  24   12   13 1
  25   12   41 1
  26   12   42 1
  27   12   43 1
  28   13   14 1
  29   13   44 1
  30   13   45 1
  31   14   15 1
  32   14   46 1
  33   14   47 1
  34   15   16 1
  35   15   48 1
  36   15   49 1
  37   16   17 1
  38   16   50 1
  39   16   51 1
  40   17   18 1
  41   17   52 1
  42   17   53 1
  43   18   19 1
  44   18   54 1
  45   18   55 1
  46   19   20 1
  47   19   56 1
  48   19   57 1
  49   20   21 1
  50   20   58 1
  51   20   59 1
  52   21   22 1
  53   21   60 1
  54   21   61 1
  55   22   23 1
  56   22   62 1
  57   22   63 1
  58   23   24 1
  59   23   64 1
  60   23   65 1
  61   24   25 1
  62   24   66 1
  63   24   67 1
  64   25   26 1
  65   25   68 1
  66   25   69 1
  67   26   27 1
  68   26   70 1
  69   26   71 1
  70   27   28 1
  71   27   72 1
  72   27   73 1
  73   28   29 1
  74   28   74 1
  75   28   75 1
  76   29   76 1
  77   29   77 1
  78   30   78 1
  79   30   79 1
  80   30   80 1
  81   31   81 1
  82   31   82 1
  83   31   83 1

#	End of record

