#	Name: ASD00431173
#	Creating user name:	WinNT
#	Creation time:	15. 06. 2019 18:35

#	Modifying user name:	WinNT
#	Modification time:	15. 06. 2019 18:35

#	Program:	/corina/corina34_cracker 3.40 0067  02.08.2006

@<TRIPOS>MOLECULE
ASD00431173
  51   53    0    0    0
SMALL
NO_CHARGES


@<TRIPOS>ATOM
   1 C1            -0.2785     1.5717    -0.2101 C.2     
   2 C2            -0.2768     0.0650    -0.2415 C.3     
   3 O3             0.7708     2.1797    -0.2246 O.2     
   4 N4            -1.4462     2.2436    -0.1714 N.am    
   5 C5            -1.4478     3.7083    -0.1409 C.3     
   6 C6            -1.3530     4.2483    -1.5692 C.3     
   7 O7            -3.9513     3.6880     0.3210 O.3     
   8 N8            -4.7820     4.2863     0.9642 N.2     
   9 C9            -4.2428     5.2630     1.6513 C.2     
  10 C10           -2.8505     5.2305     1.3584 C.2     
  11 C11           -2.7231     4.1960     0.4970 C.2     
  12 C12           -4.2516     7.2689     3.1385 C.ar    
  13 C13           -4.9426     6.2118     2.5521 C.ar    
  14 C14           -6.3062     6.0575     2.8239 C.ar    
  15 C15           -6.9144     6.9661     3.6684 C.ar    
  16 C16           -6.1580     7.9958     4.2161 C.ar    
  17 N17           -4.8692     8.1140     3.9386 N.ar    
  18 O18           -6.7485     8.8916     5.0455 O.3     
  19 C19           -5.9601     9.8241     5.6434 C.ar    
  20 C20           -5.3258    10.7908     4.8768 C.ar    
  21 C21           -4.5253    11.7383     5.4843 C.ar    
  22 C22           -4.3553    11.7231     6.8609 C.ar    
  23 C23           -4.9895    10.7566     7.6275 C.ar    
  24 C24           -5.7946     9.8125     7.0207 C.ar    
  25 O25           -3.5665    12.6554     7.4588 O.3     
  26 C26           -2.8357    13.5337     6.6005 C.3     
  27 C27           -3.6404    14.8158     6.3782 C.3     
  28 C28           -1.4936    13.8798     7.2484 C.3     
  29 H29           -0.2498    -0.3196     0.7780 H       
  30 H30           -1.1794    -0.2890    -0.7396 H       
  31 H31            0.5999    -0.2861    -0.7857 H       
  32 H32           -2.2855     1.7575    -0.1638 H       
  33 H33           -0.5941     4.0606     0.4382 H       
  34 H34           -0.4306     3.8956    -2.0306 H       
  35 H35           -2.2067     3.8961    -2.1482 H       
  36 H36           -1.3542     5.3381    -1.5465 H       
  37 H37           -2.0758     5.8813     1.7359 H       
  38 H38           -3.1976     7.3947     2.9389 H       
  39 H39           -6.8697     5.2479     2.3841 H       
  40 H40           -7.9656     6.8776     3.9001 H       
  41 H41           -5.4576    10.8022     3.8050 H       
  42 H42           -4.0315    12.4908     4.8875 H       
  43 H43           -4.8567    10.7446     8.6992 H       
  44 H44           -6.2919     9.0626     7.6180 H       
  45 H45           -2.6611    13.0436     5.6427 H       
  46 H46           -3.8150    15.3059     7.3361 H       
  47 H47           -3.0830    15.4857     5.7236 H       
  48 H48           -4.5966    14.5692     5.9166 H       
  49 H49           -0.9202    12.9664     7.4068 H       
  50 H50           -0.9361    14.5498     6.5938 H       
  51 H51           -1.6681    14.3699     8.2063 H       
@<TRIPOS>BOND
   1    1    2 1
   2    1    3 2
   3    1    4 am
   4    2   29 1
   5    2   30 1
   6    2   31 1
   7    4    5 1
   8    4   32 1
   9    5    6 1
  10    5   11 1
  11    5   33 1
  12    6   34 1
  13    6   35 1
  14    6   36 1
  15    7    8 1
  16    7   11 1
  17    8    9 2
  18    9   10 1
  19    9   13 1
  20   10   11 2
  21   10   37 1
  22   12   13 ar
  23   12   17 ar
  24   12   38 1
  25   13   14 ar
  26   14   15 ar
  27   14   39 1
  28   15   16 ar
  29   15   40 1
  30   16   17 ar
  31   16   18 1
  32   18   19 1
  33   19   20 ar
  34   19   24 ar
  35   20   21 ar
  36   20   41 1
  37   21   22 ar
  38   21   42 1
  39   22   23 ar
  40   22   25 1
  41   23   24 ar
  42   23   43 1
  43   24   44 1
  44   25   26 1
  45   26   27 1
  46   26   28 1
  47   26   45 1
  48   27   46 1
  49   27   47 1
  50   27   48 1
  51   28   49 1
  52   28   50 1
  53   28   51 1

#	End of record

