#	Name: ASD02030077
#	Creating user name:	WinNT
#	Creation time:	15. 06. 2019 20:14

#	Modifying user name:	WinNT
#	Modification time:	15. 06. 2019 20:14

#	Program:	/corina/corina34_cracker 3.40 0067  02.08.2006

@<TRIPOS>MOLECULE
ASD02030077
  66   69    0    0    0
SMALL
NO_CHARGES


@<TRIPOS>ATOM
   1 C1            -0.6010     0.2794     1.1746 C.ar    
   2 C2             0.0062     0.0048    -0.0428 C.ar    
   3 C3            -0.5914     0.3951    -1.2265 C.ar    
   4 C4            -1.8033     1.0651    -1.2078 C.ar    
   5 C5            -2.4257     1.3476     0.0186 C.ar    
   6 C6            -1.8162     0.9436     1.2128 C.ar    
   7 F7            -2.4062     1.2097     2.3987 F       
   8 O8            -2.3874     1.4479    -2.3715 O.3     
   9 C9            -3.7140     2.0599     0.0486 C.2     
  10 O10           -4.7552     1.4364    -0.0251 O.2     
  11 C11           -3.7415     3.5348     0.1685 C.ar    
  12 C12           -4.9547     4.2200     0.0786 C.ar    
  13 C13           -2.5550     4.2405     0.3773 C.ar    
  14 C14           -2.5807     5.6135     0.4899 C.ar    
  15 C15           -3.7932     6.2991     0.3946 C.ar    
  16 C16           -4.9803     5.5931     0.1902 C.ar    
  17 C17           -3.8209     7.7730     0.5159 C.2     
  18 O18           -4.9906     8.4344     0.4241 O.3     
  19 O19           -2.7890     8.3867     0.6984 O.2     
  20 C20           -4.9424     9.8799     0.5526 C.3     
  21 C21           -6.1479    10.5332    -0.1616 C.3     
  22 N22           -7.2337     9.5622    -0.3176 N.am    
  23 C23           -8.1379     9.7152    -1.3053 C.2     
  24 O24           -8.0523    10.6591    -2.0669 O.2     
  25 C25           -9.2319     8.7370    -1.4624 C.ar    
  26 C26          -10.1703     8.8939    -2.4858 C.ar    
  27 C27           -9.3286     7.6483    -0.5917 C.ar    
  28 C28          -10.3505     6.7376    -0.7419 C.ar    
  29 C29          -11.2850     6.9001    -1.7579 C.ar    
  30 C30          -11.1892     7.9788    -2.6293 C.ar    
  31 O31          -12.2906     6.0004    -1.9026 O.3     
  32 C32           -5.1417    10.3061     2.0288 C.3     
  33 N33           -5.6607    11.6931     1.9150 N.3     
  34 C34           -6.5880    11.6834     0.7629 C.3     
  35 C35           -1.6964     1.1271    -3.5804 C.3     
  36 O36           -1.8414    -0.2675    -3.8563 O.3     
  37 C37           -3.1322    -0.6312    -4.3500 C.3     
  38 O38           -0.0040    -0.1098     2.3334 O.3     
  39 C39            1.2447    -0.7956     2.2214 C.3     
  40 H40            0.9516    -0.5167    -0.0654 H       
  41 H41           -0.1114     0.1771    -2.1692 H       
  42 H42           -5.8730     3.6738    -0.0789 H       
  43 H43           -1.6170     3.7101     0.4510 H       
  44 H44           -1.6630     6.1593     0.6521 H       
  45 H45           -5.9182     6.1235     0.1162 H       
  46 H46           -4.0021    10.2693     0.1623 H       
  47 H47           -5.8462    10.9219    -1.1342 H       
  48 H48           -7.3020     8.8092     0.2901 H       
  49 H49          -10.0968     9.7319    -3.1631 H       
  50 H50           -8.6027     7.5212     0.1978 H       
  51 H51          -10.4257     5.8958    -0.0695 H       
  52 H52          -11.9173     8.1016    -3.4175 H       
  53 H53          -13.0887     6.2186    -1.4020 H       
  54 H54           -5.8707     9.6617     2.5202 H       
  55 H55           -4.1925    10.2932     2.5644 H       
  56 H56           -6.1367    11.9716     2.7600 H       
  57 H57           -6.5277    12.6322     0.2296 H       
  58 H58           -7.6077    11.5127     1.1083 H       
  59 H59           -2.1160     1.7058    -4.4033 H       
  60 H60           -0.6390     1.3674    -3.4693 H       
  61 H61           -3.8905    -0.3686    -3.6124 H       
  62 H62           -3.3293    -0.0972    -5.2796 H       
  63 H63           -3.1613    -1.7050    -4.5346 H       
  64 H64            1.9686    -0.1527     1.7206 H       
  65 H65            1.6107    -1.0486     3.2164 H       
  66 H66            1.1072    -1.7084     1.6418 H       
@<TRIPOS>BOND
   1    1    2 ar
   2    1   38 1
   3    1    6 ar
   4    2    3 ar
   5    2   40 1
   6    3    4 ar
   7    3   41 1
   8    4    5 ar
   9    4    8 1
  10    5    6 ar
  11    5    9 1
  12    6    7 1
  13    8   35 1
  14    9   10 2
  15    9   11 1
  16   11   12 ar
  17   11   13 ar
  18   12   16 ar
  19   12   42 1
  20   13   14 ar
  21   13   43 1
  22   14   15 ar
  23   14   44 1
  24   15   16 ar
  25   15   17 1
  26   16   45 1
  27   17   18 1
  28   17   19 2
  29   18   20 1
  30   20   32 1
  31   20   21 1
  32   20   46 1
  33   21   22 1
  34   21   34 1
  35   21   47 1
  36   22   23 am
  37   22   48 1
  38   23   24 2
  39   23   25 1
  40   25   26 ar
  41   25   27 ar
  42   26   30 ar
  43   26   49 1
  44   27   28 ar
  45   27   50 1
  46   28   29 ar
  47   28   51 1
  48   29   30 ar
  49   29   31 1
  50   30   52 1
  51   31   53 1
  52   32   33 1
  53   32   54 1
  54   32   55 1
  55   33   34 1
  56   33   56 1
  57   34   57 1
  58   34   58 1
  59   35   36 1
  60   35   59 1
  61   35   60 1
  62   36   37 1
  63   37   61 1
  64   37   62 1
  65   37   63 1
  66   38   39 1
  67   39   64 1
  68   39   65 1
  69   39   66 1

#	End of record

