#	Name: ASD01940037
#	Creating user name:	WinNT
#	Creation time:	15. 06. 2019 20:11

#	Modifying user name:	WinNT
#	Modification time:	15. 06. 2019 20:11

#	Program:	/corina/corina34_cracker 3.40 0067  02.08.2006

@<TRIPOS>MOLECULE
ASD01940037
  47   49    0    0    0
SMALL
NO_CHARGES


@<TRIPOS>ATOM
   1 C1             0.2717     1.3677     0.1878 C.ar    
   2 C2             0.2616     0.1561    -0.4913 C.ar    
   3 C3            -0.8682    -0.6374    -0.4699 C.ar    
   4 C4            -1.9931    -0.2248     0.2297 C.ar    
   5 C5            -1.9839     0.9856     0.9080 C.ar    
   6 C6            -0.8529     1.7776     0.8923 C.ar    
   7 N7             1.4165     2.1723     0.1671 N.pl3   
   8 C8             1.2935     3.5501     0.1571 C.2     
   9 C9             2.3123     4.4862     0.2632 C.2     
  10 C10            1.8641     5.8073     0.2194 C.2     
  11 N11            0.5851     5.9887     0.0885 N.2     
  12 S12           -0.1540     4.4663     0.0032 S.3     
  13 O13            2.7253     6.8539     0.3098 O.3     
  14 C14            3.7307     4.1207     0.4088 C.2     
  15 N15            4.2728     3.9481     1.6653 N.pl3   
  16 N16            4.4763     3.9598    -0.6524 N.2     
  17 C17            5.6845     3.5843     1.8103 C.3     
  18 C18            6.5436     4.8498     1.7739 C.3     
  19 C19            5.8915     2.8656     3.1450 C.3     
  20 O20            5.6216     3.7687     4.2192 O.3     
  21 O21           -3.1052    -1.0067     0.2503 O.3     
  22 C22           -4.2198    -0.5480    -0.3790 C.ar    
  23 C23           -5.4150    -1.2483    -0.2752 C.ar    
  24 C24           -6.5476    -0.7795    -0.9163 C.ar    
  25 C25           -6.4893     0.3864    -1.6606 C.ar    
  26 C26           -4.1663     0.6226    -1.1206 C.ar    
  27 C27           -5.2982     1.0848    -1.7643 C.ar    
  28 F28           -5.4712    -2.3862     0.4509 F       
  29 F29           -7.5959     0.8432    -2.2867 F       
  30 H30            1.1370    -0.1650    -1.0362 H       
  31 H31           -0.8764    -1.5793    -0.9982 H       
  32 H32           -2.8600     1.3062     1.4521 H       
  33 H33           -0.8459     2.7197     1.4203 H       
  34 H34            2.2963     1.7639     0.1597 H       
  35 H35            3.0651     7.1585    -0.5427 H       
  36 H36            3.7194     4.0675     2.4530 H       
  37 H37            5.4110     3.7189    -0.5564 H       
  38 H38            5.9754     2.9241     0.9932 H       
  39 H39            6.2528     5.5100     2.5910 H       
  40 H40            7.5940     4.5792     1.8817 H       
  41 H41            6.3962     5.3618     0.8230 H       
  42 H42            5.2145     2.0137     3.2078 H       
  43 H43            6.9219     2.5168     3.2139 H       
  44 H44            5.7331     3.3797     5.0974 H       
  45 H45           -7.4773    -1.3233    -0.8366 H       
  46 H46           -3.2389     1.1707    -1.1983 H       
  47 H47           -5.2549     1.9941    -2.3454 H       
@<TRIPOS>BOND
   1    1    2 ar
   2    1    7 1
   3    1    6 ar
   4    2    3 ar
   5    2   30 1
   6    3    4 ar
   7    3   31 1
   8    4    5 ar
   9    4   21 1
  10    5    6 ar
  11    5   32 1
  12    6   33 1
  13    7    8 1
  14    7   34 1
  15    8    9 2
  16    8   12 1
  17    9   10 1
  18    9   14 1
  19   10   11 2
  20   10   13 1
  21   11   12 1
  22   13   35 1
  23   14   15 1
  24   14   16 2
  25   15   17 1
  26   15   36 1
  27   16   37 1
  28   17   18 1
  29   17   19 1
  30   17   38 1
  31   18   39 1
  32   18   40 1
  33   18   41 1
  34   19   20 1
  35   19   42 1
  36   19   43 1
  37   20   44 1
  38   21   22 1
  39   22   23 ar
  40   22   26 ar
  41   23   24 ar
  42   23   28 1
  43   24   25 ar
  44   24   45 1
  45   25   27 ar
  46   25   29 1
  47   26   27 ar
  48   26   46 1
  49   27   47 1

#	End of record

