#	Name: ASD03091278
#	Creating user name:	WinNT
#	Creation time:	15. 06. 2019 20:30

#	Modifying user name:	WinNT
#	Modification time:	15. 06. 2019 20:30

#	Program:	/corina/corina34_cracker 3.40 0067  02.08.2006

@<TRIPOS>MOLECULE
ASD03091278
  55   60    0    0    0
SMALL
NO_CHARGES


@<TRIPOS>ATOM
   1 N1             0.0069     1.2404     0.2429 N.2     
   2 C2             0.0617    -0.0565     0.0811 C.2     
   3 N3             1.2283    -0.7302    -0.1620 N.am    
   4 C4             2.4012    -0.0600    -0.2467 C.2     
   5 C5             2.3634     1.3991    -0.0684 C.ar    
   6 C6             3.5169     2.1770    -0.1381 C.ar    
   7 C7             3.4232     3.5473     0.0370 C.ar    
   8 C8             2.1866     4.1451     0.2814 C.ar    
   9 C9             1.0477     3.3959     0.3524 C.ar    
  10 C10            1.1127     2.0097     0.1794 C.ar    
  11 O11            3.4478    -0.6432    -0.4618 O.2     
  12 C12           -1.1938    -0.8301     0.1650 C.ar    
  13 C13           -1.3233    -1.8600     1.1023 C.ar    
  14 C14           -2.5017    -2.5791     1.1740 C.ar    
  15 C15           -3.5491    -2.2815     0.3217 C.ar    
  16 C16           -3.4264    -1.2635    -0.6077 C.ar    
  17 C17           -2.2590    -0.5331    -0.6870 C.ar    
  18 F18           -0.2998    -2.1515     1.9345 F       
  19 C19            1.2073    -2.1853    -0.3311 C.3     
  20 C20            0.4414    -2.7461    -1.5311 C.3     
  21 C21            1.9712    -2.7694    -1.5211 C.3     
  22 N22            7.1409     5.3177    -1.1363 N.3     
  23 C23            7.0578     4.3109    -0.0673 C.3     
  24 C24            5.7739     3.5047    -0.1872 C.3     
  25 N25            4.5747     4.3365    -0.0310 N.3     
  26 C26            4.4781     5.3161    -1.1222 C.3     
  27 C27            5.1008     6.6397    -0.7039 C.3     
  28 C28            6.6150     6.6040    -0.6571 C.3     
  29 C29            6.6010     4.9322    -2.4225 C.3     
  30 C30            5.0959     4.7263    -2.3768 C.3     
  31 H31            4.4750     1.7157    -0.3264 H       
  32 H32            2.1296     5.2151     0.4165 H       
  33 H33            0.0976     3.8730     0.5426 H       
  34 H34           -2.6043    -3.3749     1.8969 H       
  35 H35           -4.4675    -2.8468     0.3813 H       
  36 H36           -4.2488    -1.0374    -1.2702 H       
  37 H37           -2.1675     0.2638    -1.4101 H       
  38 H38            1.1921    -2.7656     0.5915 H       
  39 H39           -0.0772    -3.6955    -1.3980 H       
  40 H40           -0.0467    -2.0324    -2.1947 H       
  41 H41            2.4895    -2.0710    -2.1782 H       
  42 H42            2.4590    -3.7341    -1.3816 H       
  43 H43            7.9123     3.6382    -0.1404 H       
  44 H44            7.0780     4.8121     0.9005 H       
  45 H45            5.7472     3.0271    -1.1666 H       
  46 H46            5.7696     2.7313     0.5809 H       
  47 H47            3.4216     5.4889    -1.3275 H       
  48 H48            4.7910     7.4102    -1.4100 H       
  49 H49            4.7267     6.9049     0.2849 H       
  50 H50            6.9431     6.7621     0.3703 H       
  51 H51            7.0094     7.4049    -1.2825 H       
  52 H52            6.8293     5.7115    -3.1496 H       
  53 H53            7.0753     4.0040    -2.7411 H       
  54 H54            4.8834     3.6577    -2.4076 H       
  55 H55            4.6468     5.2005    -3.2495 H       
@<TRIPOS>BOND
   1    1    2 2
   2    1   10 1
   3    2    3 1
   4    2   12 1
   5    3    4 am
   6    3   19 1
   7    4    5 1
   8    4   11 2
   9    5    6 ar
  10    5   10 ar
  11    6    7 ar
  12    6   31 1
  13    7    8 ar
  14    7   25 1
  15    8    9 ar
  16    8   32 1
  17    9   10 ar
  18    9   33 1
  19   12   13 ar
  20   12   17 ar
  21   13   14 ar
  22   13   18 1
  23   14   15 ar
  24   14   34 1
  25   15   16 ar
  26   15   35 1
  27   16   17 ar
  28   16   36 1
  29   17   37 1
  30   19   20 1
  31   19   21 1
  32   19   38 1
  33   20   21 1
  34   20   39 1
  35   20   40 1
  36   21   41 1
  37   21   42 1
  38   22   23 1
  39   22   28 1
  40   22   29 1
  41   23   24 1
  42   23   43 1
  43   23   44 1
  44   24   25 1
  45   24   45 1
  46   24   46 1
  47   25   26 1
  48   26   27 1
  49   26   30 1
  50   26   47 1
  51   27   28 1
  52   27   48 1
  53   27   49 1
  54   28   50 1
  55   28   51 1
  56   29   30 1
  57   29   52 1
  58   29   53 1
  59   30   54 1
  60   30   55 1

#	End of record

