#	Name: ASD02030239
#	Creating user name:	WinNT
#	Creation time:	15. 06. 2019 20:14

#	Modifying user name:	WinNT
#	Modification time:	15. 06. 2019 20:14

#	Program:	/corina/corina34_cracker 3.40 0067  02.08.2006

@<TRIPOS>MOLECULE
ASD02030239
  55   59    0    0    0
SMALL
NO_CHARGES


@<TRIPOS>ATOM
   1 N1            -0.9841     2.1002    -1.3491 N.am    
   2 C2            -0.9330     0.6705    -1.6856 C.3     
   3 C3            -1.0999    -0.1428    -0.3960 C.3     
   4 N4            -2.2660     0.3714     0.3358 N.am    
   5 C5            -2.3172     1.8011     0.6723 C.3     
   6 C6            -2.1477     2.6132    -0.6124 C.3     
   7 C7             0.0207     2.9250    -1.7049 C.2     
   8 C8             1.2357     2.3768    -2.3442 C.2     
   9 N9             2.3314     3.0481    -2.6264 N.2     
  10 N10            1.4181     1.1020    -2.7346 N.2     
  11 C11            2.6178     1.0213    -3.2512 C.2     
  12 N12            3.1770     2.2465    -3.1765 N.pl3   
  13 C13            4.4605     2.5897    -3.6226 C.ar    
  14 O14           -0.0722     4.1196    -1.5001 O.2     
  15 C15           -3.2708    -0.4534     0.6916 C.2     
  16 C16           -3.2087    -1.8861     0.3417 C.ar    
  17 O17           -4.2284    -0.0174     1.3009 O.2     
  18 C18            4.9183     3.8928    -3.4864 C.ar    
  19 C19            6.1862     4.2282    -3.9274 C.ar    
  20 C20            6.9966     3.2645    -4.5038 C.ar    
  21 C21            6.5411     1.9662    -4.6402 C.ar    
  22 C22            5.2785     1.6251    -4.1964 C.ar    
  23 C23           -3.6660     2.1293     1.3155 C.3     
  24 C24           -1.9756    -2.5393     0.2807 C.ar    
  25 F25            6.6334     5.4962    -3.7961 F       
  26 C26           -1.9209    -3.8772    -0.0474 C.ar    
  27 C27           -3.0897    -4.5802    -0.3189 C.ar    
  28 C28           -4.3219    -3.9346    -0.2568 C.ar    
  29 C29           -4.3834    -2.5939     0.0762 C.ar    
  30 Cl30          -0.3873    -4.6872    -0.1223 Cl      
  31 O31           -3.0114    -5.8973    -0.6483 O.3     
  32 C32           -4.2187    -6.6597    -0.5462 C.3     
  33 C33           -5.3508    -5.8584    -1.2030 C.3     
  34 O34           -5.4758    -4.6107    -0.5121 O.3     
  35 H35           -1.7396     0.4285    -2.3776 H       
  36 H36            0.0280     0.4367    -2.1438 H       
  37 H37           -1.2569    -1.1926    -0.6433 H       
  38 H38           -0.2066    -0.0391     0.2200 H       
  39 H39           -1.5106     2.0431     1.3644 H       
  40 H40           -1.9908     3.6628    -0.3636 H       
  41 H41           -3.0397     2.5106    -1.2304 H       
  42 H42            3.0777     0.1340    -3.6605 H       
  43 H43            4.2857     4.6441    -3.0371 H       
  44 H44            7.9861     3.5275    -4.8476 H       
  45 H45            7.1750     1.2168    -5.0907 H       
  46 H46            4.9240     0.6106    -4.3036 H       
  47 H47           -3.7517     1.6055     2.2675 H       
  48 H48           -3.7361     3.2038     1.4844 H       
  49 H49           -4.4713     1.8124     0.6527 H       
  50 H50           -1.0657    -1.9966     0.4901 H       
  51 H51           -5.3387    -2.0922     0.1229 H       
  52 H52           -4.0963    -7.6126    -1.0611 H       
  53 H53           -4.4543    -6.8361     0.5033 H       
  54 H54           -5.1121    -5.6760    -2.2508 H       
  55 H55           -6.2853    -6.4145    -1.1297 H       
@<TRIPOS>BOND
   1    1    2 1
   2    1    7 am
   3    1    6 1
   4    2    3 1
   5    2   35 1
   6    2   36 1
   7    3    4 1
   8    3   37 1
   9    3   38 1
  10    4    5 1
  11    4   15 am
  12    5    6 1
  13    5   23 1
  14    5   39 1
  15    6   40 1
  16    6   41 1
  17    7    8 1
  18    7   14 2
  19    8    9 2
  20    8   10 1
  21    9   12 1
  22   10   11 2
  23   11   12 1
  24   11   42 1
  25   12   13 1
  26   13   18 ar
  27   13   22 ar
  28   15   16 1
  29   15   17 2
  30   16   24 ar
  31   16   29 ar
  32   18   19 ar
  33   18   43 1
  34   19   20 ar
  35   19   25 1
  36   20   21 ar
  37   20   44 1
  38   21   22 ar
  39   21   45 1
  40   22   46 1
  41   23   47 1
  42   23   48 1
  43   23   49 1
  44   24   26 ar
  45   24   50 1
  46   26   27 ar
  47   26   30 1
  48   27   28 ar
  49   27   31 1
  50   28   29 ar
  51   28   34 1
  52   29   51 1
  53   31   32 1
  54   32   33 1
  55   32   52 1
  56   32   53 1
  57   33   34 1
  58   33   54 1
  59   33   55 1

#	End of record

