#	Name: ASD01883787
#	Creating user name:	WinNT
#	Creation time:	15. 06. 2019 19:47

#	Modifying user name:	WinNT
#	Modification time:	15. 06. 2019 19:47

#	Program:	/corina/corina34_cracker 3.40 0067  02.08.2006

@<TRIPOS>MOLECULE
ASD01883787
  63   67    0    0    0
SMALL
NO_CHARGES


@<TRIPOS>ATOM
   1 C1            -0.0168     1.3856     0.0097 C.ar    
   2 C2             0.0021    -0.0041     0.0020 C.ar    
   3 C3             1.2157    -0.6846    -0.0128 C.ar    
   4 C4             2.3947     0.0184    -0.0203 C.ar    
   5 C5             2.3848     1.4172    -0.0132 C.ar    
   6 C6             1.1631     2.0958     0.0022 C.ar    
   7 C7             3.8447    -0.3969    -0.0365 C.3     
   8 N8             4.6266     0.8448    -0.0379 N.am    
   9 C9             3.7803     1.8889    -0.0244 C.2     
  10 O10            4.1185     3.0567    -0.0214 O.2     
  11 O11           -1.1642    -0.6979     0.0095 O.3     
  12 C12           -2.3727     0.0646     0.0252 C.3     
  13 C13           -3.5557    -0.8689     0.0315 C.ar    
  14 C14           -4.0849    -1.3020     1.2301 C.ar    
  15 C15           -5.1788    -2.1652     1.2345 C.ar    
  16 C16           -5.7322    -2.5863     0.0273 C.ar    
  17 C17           -5.1949    -2.1469    -1.1659 C.ar    
  18 C18           -4.1127    -1.2857    -1.1643 C.ar    
  19 C19           -5.7519    -2.6347     2.5204 C.ar    
  20 C20           -6.8432    -3.4958     2.5225 C.ar    
  21 C21           -7.3770    -3.9332     3.7347 C.ar    
  22 C22           -6.8112    -3.5028     4.9385 C.ar    
  23 C23           -5.7264    -2.6462     4.9264 C.ar    
  24 C24           -5.1923    -2.2167     3.7280 C.ar    
  25 Cl25          -7.4718    -4.0444     6.4498 Cl      
  26 C26            6.0889     0.9321    -0.0517 C.3     
  27 C27            6.5839     0.9697    -1.4989 C.3     
  28 C28            8.0985     1.1861    -1.5143 C.3     
  29 C29            8.5935     1.2238    -2.9616 C.3     
  30 C30            8.2607    -0.1019    -3.6491 C.3     
  31 C31            6.7461    -0.3183    -3.6336 C.3     
  32 C32            6.2511    -0.3559    -2.1864 C.3     
  33 C33           -8.5364    -4.8476     3.7464 C.2     
  34 O34           -9.0803    -5.2606     2.5851 O.3     
  35 O35           -8.9998    -5.2274     4.8031 O.2     
  36 H36           -0.9605     1.9106     0.0170 H       
  37 H37            1.2300    -1.7645    -0.0180 H       
  38 H38            1.1443     3.1757     0.0075 H       
  39 H39            4.0762    -0.9844     0.8519 H       
  40 H40            4.0588    -0.9754    -0.9352 H       
  41 H41           -2.3972     0.6883     0.9188 H       
  42 H42           -2.4142     0.6978    -0.8611 H       
  43 H43           -3.6518    -0.9728     2.1631 H       
  44 H44           -6.5799    -3.2555     0.0250 H       
  45 H45           -5.6231    -2.4726    -2.1023 H       
  46 H46           -3.6956    -0.9441    -2.1001 H       
  47 H47           -7.2762    -3.8245     1.5893 H       
  48 H48           -5.2922    -2.3151     5.8582 H       
  49 H49           -4.3448    -1.5474     3.7255 H       
  50 H50            6.4036     1.8395     0.4637 H       
  51 H51            6.5096     0.0628     0.4537 H       
  52 H52            6.0948     1.7869    -2.0291 H       
  53 H53            8.3356     2.1305    -1.0245 H       
  54 H54            8.5877     0.3690    -0.9842 H       
  55 H55            8.1043     2.0409    -3.4917 H       
  56 H56            9.6725     1.3779    -2.9726 H       
  57 H57            8.6134    -0.0751    -4.6801 H       
  58 H58            8.7499    -0.9190    -3.1189 H       
  59 H59            6.2570     0.4988    -4.1638 H       
  60 H60            6.5090    -1.2627    -4.1234 H       
  61 H61            6.7403    -1.1731    -1.6562 H       
  62 H62            5.1721    -0.5101    -2.1754 H       
  63 H63           -9.8378    -5.8588     2.6434 H       
@<TRIPOS>BOND
   1    1    2 ar
   2    1    6 ar
   3    1   36 1
   4    2    3 ar
   5    2   11 1
   6    3    4 ar
   7    3   37 1
   8    4    5 ar
   9    4    7 1
  10    5    6 ar
  11    5    9 1
  12    6   38 1
  13    7    8 1
  14    7   39 1
  15    7   40 1
  16    8    9 am
  17    8   26 1
  18    9   10 2
  19   11   12 1
  20   12   13 1
  21   12   41 1
  22   12   42 1
  23   13   14 ar
  24   13   18 ar
  25   14   15 ar
  26   14   43 1
  27   15   16 ar
  28   15   19 1
  29   16   17 ar
  30   16   44 1
  31   17   18 ar
  32   17   45 1
  33   18   46 1
  34   19   20 ar
  35   19   24 ar
  36   20   21 ar
  37   20   47 1
  38   21   22 ar
  39   21   33 1
  40   22   23 ar
  41   22   25 1
  42   23   24 ar
  43   23   48 1
  44   24   49 1
  45   26   27 1
  46   26   50 1
  47   26   51 1
  48   27   28 1
  49   27   32 1
  50   27   52 1
  51   28   29 1
  52   28   53 1
  53   28   54 1
  54   29   30 1
  55   29   55 1
  56   29   56 1
  57   30   31 1
  58   30   57 1
  59   30   58 1
  60   31   32 1
  61   31   59 1
  62   31   60 1
  63   32   61 1
  64   32   62 1
  65   33   34 1
  66   33   35 2
  67   34   63 1

#	End of record

