#	Name: ASD01028043
#	Creating user name:	WinNT
#	Creation time:	15. 06. 2019 18:56

#	Modifying user name:	WinNT
#	Modification time:	15. 06. 2019 18:56

#	Program:	/corina/corina34_cracker 3.40 0067  02.08.2006

@<TRIPOS>MOLECULE
ASD01028043
  63   67    0    0    0
SMALL
NO_CHARGES


@<TRIPOS>ATOM
   1 C1            -0.0187     1.5248     0.0104 C.3     
   2 C2             0.0021    -0.0041     0.0020 C.3     
   3 C3             1.5378     3.2284     0.9771 C.3     
   4 C4             1.4156     2.0570    -0.0004 C.3     
   5 N5             3.0772     3.1288     2.8899 N.3     
   6 N6             2.7211     0.1147     4.3547 N.pl3   
   7 C7             3.6607     0.8066     5.1061 C.ar    
   8 C8             4.4079     1.7974     4.4793 C.ar    
   9 C9             4.1699     2.1185     3.0312 C.3     
  10 C10            3.8562     0.5493     6.4628 C.ar    
  11 C11            4.8252     1.2501     7.1678 C.ar    
  12 C12            5.5926     2.2118     6.5229 C.ar    
  13 C13            5.3795     2.4777     5.1864 C.ar    
  14 O14           -0.9255    -0.5130     0.9618 O.3     
  15 C15           -0.4336    -1.2866     1.9644 C.ar    
  16 C16            0.5709    -0.7889     2.7501 C.ar    
  17 C17            1.0766    -1.5579     3.8033 C.ar    
  18 C18            2.1346    -1.0877     4.6296 C.ar    
  19 N19            2.5166    -1.8613     5.6362 N.ar    
  20 O20            3.2338    -0.3126     7.3142 O.3     
  21 C21            3.9060    -0.2436     8.5758 C.3     
  22 O22            4.8435     0.8328     8.4643 O.3     
  23 C23           -0.9472    -2.5708     2.1904 C.ar    
  24 C24           -0.4738    -3.3426     3.2311 C.ar    
  25 C25            0.5322    -2.8386     4.0652 C.ar    
  26 N26            0.9942    -3.5307     5.1184 N.ar    
  27 C27            1.9531    -3.0356     5.8663 C.ar    
  28 O28           -1.9197    -3.0600     1.3785 O.3     
  29 C29           -2.4007    -4.3754     1.6621 C.3     
  30 C30            3.6486     4.4060     3.4444 C.3     
  31 C31           -3.4842    -4.7516     0.6495 C.3     
  32 C32           -3.9992    -6.1599     0.9532 C.3     
  33 Cl33          -5.2762    -6.6032    -0.2400 Cl      
  34 C34            2.9938     3.3852     1.4101 C.3     
  35 Br35           6.9254     3.1538     7.4785 Br      
  36 H36           -0.5505     1.8877    -0.8686 H       
  37 H37           -0.5271     1.8728     0.9110 H       
  38 H38           -0.2761    -0.3617    -0.9904 H       
  39 H39            1.0048    -0.3561     0.2401 H       
  40 H40            1.1986     4.1430     0.4901 H       
  41 H41            0.9159     3.0348     1.8515 H       
  42 H42            2.1001     1.2651     0.3066 H       
  43 H43            1.6765     2.3925    -1.0032 H       
  44 H44            2.4459     0.5419     3.5327 H       
  45 H45            3.8718     1.2268     2.4915 H       
  46 H46            5.0696     2.5417     2.5917 H       
  47 H47            5.9856     3.2184     4.6846 H       
  48 H48            0.9639     0.1977     2.5532 H       
  49 H49            3.1918    -0.0375     9.3730 H       
  50 H50            4.4303    -1.1780     8.7755 H       
  51 H51           -0.8751    -4.3310     3.4009 H       
  52 H52            2.2949    -3.6148     6.7115 H       
  53 H53           -1.5770    -5.0861     1.5937 H       
  54 H54           -2.8193    -4.4001     2.6682 H       
  55 H55            2.9826     5.2354     3.2067 H       
  56 H56            3.7492     4.3194     4.5263 H       
  57 H57            4.6280     4.5881     3.0019 H       
  58 H58           -4.3079    -4.0409     0.7179 H       
  59 H59           -3.0657    -4.7269    -0.3566 H       
  60 H60           -3.1756    -6.8706     0.8848 H       
  61 H61           -4.4178    -6.1846     1.9593 H       
  62 H62            3.6213     2.6614     0.9045 H       
  63 H63            3.3350     4.3981     1.2272 H       
@<TRIPOS>BOND
   1    1    2 1
   2    1    4 1
   3    1   36 1
   4    1   37 1
   5    2   14 1
   6    2   38 1
   7    2   39 1
   8    3    4 1
   9    3   34 1
  10    3   40 1
  11    3   41 1
  12    4   42 1
  13    4   43 1
  14    5   30 1
  15    5   34 1
  16    5    9 1
  17    6    7 1
  18    6   18 1
  19    6   44 1
  20    7    8 ar
  21    7   10 ar
  22    8    9 1
  23    8   13 ar
  24    9   45 1
  25    9   46 1
  26   10   11 ar
  27   10   20 1
  28   11   12 ar
  29   11   22 1
  30   12   13 ar
  31   12   35 1
  32   13   47 1
  33   14   15 1
  34   15   16 ar
  35   15   23 ar
  36   16   17 ar
  37   16   48 1
  38   17   18 ar
  39   17   25 ar
  40   18   19 ar
  41   19   27 ar
  42   20   21 1
  43   21   22 1
  44   21   49 1
  45   21   50 1
  46   23   24 ar
  47   23   28 1
  48   24   25 ar
  49   24   51 1
  50   25   26 ar
  51   26   27 ar
  52   27   52 1
  53   28   29 1
  54   29   31 1
  55   29   53 1
  56   29   54 1
  57   30   55 1
  58   30   56 1
  59   30   57 1
  60   31   32 1
  61   31   58 1
  62   31   59 1
  63   32   33 1
  64   32   60 1
  65   32   61 1
  66   34   62 1
  67   34   63 1

#	End of record

