#	Name: ASD02500755
#	Creating user name:	WinNT
#	Creation time:	15. 06. 2019 20:23

#	Modifying user name:	WinNT
#	Modification time:	15. 06. 2019 20:23

#	Program:	/corina/corina34_cracker 3.40 0067  02.08.2006

@<TRIPOS>MOLECULE
ASD02500755
  49   52    0    0    0
SMALL
NO_CHARGES


@<TRIPOS>ATOM
   1 N1            -0.0178     1.4650     0.0101 N.am    
   2 C2             0.0021    -0.0041     0.0020 C.3     
   3 C3             0.8803    -0.4916     1.1586 C.3     
   4 C4             2.2627     0.1563     1.0525 C.3     
   5 C5             2.1248     1.6768     1.1584 C.3     
   6 C6             1.2607     2.1889     0.0018 C.3     
   7 S7            -1.4541     2.2893     0.0214 S.o2    
   8 O8            -1.1826     3.5759    -0.5173 O.2     
   9 O9            -2.4268     1.4081    -0.5232 O.2     
  10 O10           -2.9580     3.1100     5.6604 O.3     
  11 C11           -2.6014     2.9317     4.3590 C.ar    
  12 C12           -1.8243     3.8764     3.6985 C.ar    
  13 O13           -1.3980     4.9988     4.3395 O.3     
  14 C14           -2.0771     5.3446     5.5516 C.3     
  15 C15           -2.2099     4.0765     6.4060 C.3     
  16 C16           -1.4762     3.6768     2.3712 C.ar    
  17 C17           -1.8984     2.5398     1.7080 C.ar    
  18 C18           -2.6689     1.5994     2.3653 C.ar    
  19 C19           -3.0210     1.7931     3.6880 C.ar    
  20 S20            3.3191    -0.4498     2.3968 S.o2    
  21 O21            2.7943    -0.0591     3.6582 O.2     
  22 O22            3.7160    -1.7922     2.1525 O.2     
  23 C23            4.8080     0.4792     2.2390 C.ar    
  24 C24            4.9467     1.6839     2.9063 C.ar    
  25 C25            6.1172     2.4131     2.7815 C.ar    
  26 C26            7.1468     1.9385     1.9910 C.ar    
  27 C27            7.0093     0.7357     1.3242 C.ar    
  28 C28            5.8419     0.0020     1.4521 C.ar    
  29 F29            5.7102    -1.1766     0.8050 F       
  30 F30            3.9403     2.1483     3.6788 F       
  31 H31           -1.0118    -0.3840     0.1278 H       
  32 H32            0.4128    -0.3587    -0.9433 H       
  33 H33            0.4202    -0.2139     2.1069 H       
  34 H34            0.9816    -1.5757     1.1066 H       
  35 H35            2.7120    -0.1016     0.0934 H       
  36 H36            1.6530     1.9341     2.1067 H       
  37 H37            3.1119     2.1361     1.1062 H       
  38 H38            1.7740     2.0131    -0.9436 H       
  39 H39            1.0772     3.2560     0.1274 H       
  40 H40           -1.5019     6.0949     6.0941 H       
  41 H41           -3.0672     5.7369     5.3192 H       
  42 H42           -2.7332     4.3110     7.3330 H       
  43 H43           -1.2199     3.6803     6.6322 H       
  44 H44           -0.8744     4.4102     1.8552 H       
  45 H45           -2.9968     0.7118     1.8447 H       
  46 H46           -3.6232     1.0567     4.1994 H       
  47 H47            6.2256     3.3533     3.3018 H       
  48 H48            8.0592     2.5081     1.8939 H       
  49 H49            7.8143     0.3660     0.7064 H       
@<TRIPOS>BOND
   1    1    2 1
   2    1    6 1
   3    1    7 am
   4    2    3 1
   5    2   31 1
   6    2   32 1
   7    3    4 1
   8    3   33 1
   9    3   34 1
  10    4    5 1
  11    4   20 1
  12    4   35 1
  13    5    6 1
  14    5   36 1
  15    5   37 1
  16    6   38 1
  17    6   39 1
  18    7    8 2
  19    7    9 2
  20    7   17 1
  21   10   11 1
  22   10   15 1
  23   11   12 ar
  24   11   19 ar
  25   12   13 1
  26   12   16 ar
  27   13   14 1
  28   14   15 1
  29   14   40 1
  30   14   41 1
  31   15   42 1
  32   15   43 1
  33   16   17 ar
  34   16   44 1
  35   17   18 ar
  36   18   19 ar
  37   18   45 1
  38   19   46 1
  39   20   21 2
  40   20   22 2
  41   20   23 1
  42   23   24 ar
  43   23   28 ar
  44   24   25 ar
  45   24   30 1
  46   25   26 ar
  47   25   47 1
  48   26   27 ar
  49   26   48 1
  50   27   28 ar
  51   27   49 1
  52   28   29 1

#	End of record

