#	Name: ASD00311496
#	Creating user name:	WinNT
#	Creation time:	15. 06. 2019 18:34

#	Modifying user name:	WinNT
#	Modification time:	15. 06. 2019 18:34

#	Program:	/corina/corina34_cracker 3.40 0067  02.08.2006

@<TRIPOS>MOLECULE
ASD00311496
  53   57    0    0    0
SMALL
NO_CHARGES


@<TRIPOS>ATOM
   1 C1            -0.0169     1.3923     0.0097 C.ar    
   2 C2             0.0021    -0.0041     0.0020 C.ar    
   3 C3             1.1982    -0.6737    -0.0125 C.ar    
   4 C4             2.3995     0.0418    -0.0201 C.ar    
   5 C5             2.3795     1.4400    -0.0129 C.ar    
   6 C6             1.1824     2.1078     0.0021 C.ar    
   7 C7            -1.3089     2.1144     0.0197 C.ar    
   8 C8            -1.5362     3.1319     0.9554 C.ar    
   9 C9            -2.7438     3.8045     0.9617 C.ar    
  10 C10           -3.7324     3.4687     0.0370 C.ar    
  11 C11           -3.5033     2.4538    -0.8943 C.ar    
  12 C12           -2.2995     1.7862    -0.9065 C.ar    
  13 C13            3.6869    -0.6777    -0.0353 C.2     
  14 O14            3.7039    -1.8926    -0.0412 O.2     
  15 O15            4.8444     0.0124    -0.0426 O.3     
  16 O16           -0.5720     3.4566     1.8551 O.3     
  17 C17           -0.8732     4.5040     2.7793 C.3     
  18 C18           -6.8253     5.3861    -0.9075 C.2     
  19 C19           -5.6174     4.7656    -1.1629 C.2     
  20 C20           -5.1137     4.7592    -2.4964 C.2     
  21 C21           -5.8441     5.3736    -3.5053 C.2     
  22 C22           -7.0712     5.9928    -3.1917 C.2     
  23 N23           -7.5287     5.9887    -1.9301 N.am    
  24 C24           -5.0262     4.1888     0.0430 C.2     
  25 C25           -5.7490     4.3648     1.1475 C.2     
  26 S26           -7.2162     5.2598     0.8045 S.3     
  27 C27           -5.3383     5.3786    -4.8975 C.ar    
  28 C28           -6.0350     4.7012    -5.8980 C.ar    
  29 C29           -5.5591     4.7100    -7.1931 C.ar    
  30 C30           -4.3932     5.3885    -7.5000 C.ar    
  31 C31           -3.6975     6.0620    -6.5119 C.ar    
  32 C32           -4.1666     6.0657    -5.2143 C.ar    
  33 O33           -7.7199     6.5356    -4.0711 O.2     
  34 O34           -3.9332     4.1596    -2.7769 O.3     
  35 H35           -0.9259    -0.5566     0.0079 H       
  36 H36            1.2126    -1.7536    -0.0177 H       
  37 H37            3.3068     1.9936    -0.0184 H       
  38 H38            1.1667     3.1877     0.0077 H       
  39 H39           -2.9218     4.5891     1.6822 H       
  40 H40           -4.2703     2.1951    -1.6093 H       
  41 H41           -2.1231     1.0049    -1.6310 H       
  42 H42            5.6626    -0.5029    -0.0525 H       
  43 H43           -0.0206     4.6622     3.4397 H       
  44 H44           -1.0839     5.4225     2.2315 H       
  45 H45           -1.7450     4.2262     3.3717 H       
  46 H46           -8.3751     6.4193    -1.7324 H       
  47 H47           -5.4666     4.0062     2.1263 H       
  48 H48           -6.9449     4.1705    -5.6594 H       
  49 H49           -6.0977     4.1858    -7.9687 H       
  50 H50           -4.0245     5.3922    -8.5151 H       
  51 H51           -2.7875     6.5893    -6.7575 H       
  52 H52           -3.6251     6.5955    -4.4446 H       
  53 H53           -3.6784     4.2092    -3.7084 H       
@<TRIPOS>BOND
   1    1    2 ar
   2    1    6 ar
   3    1    7 1
   4    2    3 ar
   5    2   35 1
   6    3    4 ar
   7    3   36 1
   8    4    5 ar
   9    4   13 1
  10    5    6 ar
  11    5   37 1
  12    6   38 1
  13    7    8 ar
  14    7   12 ar
  15    8    9 ar
  16    8   16 1
  17    9   10 ar
  18    9   39 1
  19   10   11 ar
  20   10   24 1
  21   11   12 ar
  22   11   40 1
  23   12   41 1
  24   13   14 2
  25   13   15 1
  26   15   42 1
  27   16   17 1
  28   17   43 1
  29   17   44 1
  30   17   45 1
  31   18   19 2
  32   18   23 1
  33   18   26 1
  34   19   20 1
  35   19   24 1
  36   20   21 2
  37   20   34 1
  38   21   22 1
  39   21   27 1
  40   22   23 am
  41   22   33 2
  42   23   46 1
  43   24   25 2
  44   25   26 1
  45   25   47 1
  46   27   28 ar
  47   27   32 ar
  48   28   29 ar
  49   28   48 1
  50   29   30 ar
  51   29   49 1
  52   30   31 ar
  53   30   50 1
  54   31   32 ar
  55   31   51 1
  56   32   52 1
  57   34   53 1

#	End of record

