#	Name: ASD03910080
#	Creating user name:	WinNT
#	Creation time:	15. 06. 2019 20:47

#	Modifying user name:	WinNT
#	Modification time:	15. 06. 2019 20:47

#	Program:	/corina/corina34_cracker 3.40 0067  02.08.2006

@<TRIPOS>MOLECULE
ASD03910080
   5    4    0    0    0
SMALL
NO_CHARGES


@<TRIPOS>ATOM
   1 C1            -0.0143     1.2041     0.0087 C.2     
   2 O2             0.0021    -0.0041     0.0020 O.2     
   3 O3             1.1389     1.8910     0.0013 O.3     
   4 H4            -0.9568     1.7313     0.0160 H       
   5 H5             1.0752     2.8558     0.0071 H       
@<TRIPOS>BOND
   1    1    2 2
   2    1    3 1
   3    1    4 1
   4    3    5 1

#	End of record

