#	Name: ASD00170289
#	Creating user name:	WinNT
#	Creation time:	15. 06. 2019 18:31

#	Modifying user name:	WinNT
#	Modification time:	15. 06. 2019 18:31

#	Program:	/corina/corina34_cracker 3.40 0067  02.08.2006

@<TRIPOS>MOLECULE
ASD00170289
  27   29    0    0    0
SMALL
NO_CHARGES


@<TRIPOS>ATOM
   1 C1            -0.1247     1.2971    -0.0599 C.2     
   2 C2            -0.0350    -0.0652    -0.0033 C.2     
   3 C3            -1.3344    -0.7247     0.0984 C.2     
   4 C4            -2.3432     0.1407     0.1151 C.2     
   5 S5            -1.7484     1.7977     0.0146 S.3     
   6 C6             1.2378    -0.7920    -0.0415 C.2     
   7 C7             1.7759    -1.2615    -1.3223 C.2     
   8 O8             1.8488    -1.0061     0.9917 O.2     
   9 N9             0.9567     2.1518    -0.1584 N.pl3   
  10 S10            0.9974    -1.0696    -2.8871 S.3     
  11 C11            2.2826    -1.8667    -3.6769 C.2     
  12 C12            3.2236    -2.2430    -2.8004 C.2     
  13 C13            2.9655    -1.9129    -1.4912 C.2     
  14 Cl14           2.3606    -2.1523    -5.3875 Cl      
  15 C15           -1.8628    -2.1534     0.1917 C.3     
  16 C16           -3.3065    -2.0092     0.7131 C.3     
  17 C17           -3.6739    -0.5945     0.2219 C.3     
  18 H18            1.8592     1.7996    -0.1100 H       
  19 H19            0.8133     3.1039    -0.2759 H       
  20 H20            4.1206    -2.7640    -3.1009 H       
  21 H21            3.6328    -2.1512    -0.6762 H       
  22 H22           -1.8601    -2.6236    -0.7917 H       
  23 H23           -1.2629    -2.7345     0.8922 H       
  24 H24           -3.9596    -2.7594     0.2673 H       
  25 H25           -3.3362    -2.0648     1.8013 H       
  26 H26           -4.3238    -0.0994     0.9435 H       
  27 H27           -4.1583    -0.6456    -0.7532 H       
@<TRIPOS>BOND
   1    1    2 2
   2    1    9 1
   3    1    5 1
   4    2    3 1
   5    2    6 1
   6    3    4 2
   7    3   15 1
   8    4    5 1
   9    4   17 1
  10    6    7 1
  11    6    8 2
  12    7   10 1
  13    7   13 2
  14    9   18 1
  15    9   19 1
  16   10   11 1
  17   11   12 2
  18   11   14 1
  19   12   13 1
  20   12   20 1
  21   13   21 1
  22   15   16 1
  23   15   22 1
  24   15   23 1
  25   16   17 1
  26   16   24 1
  27   16   25 1
  28   17   26 1
  29   17   27 1

#	End of record

