#	Name: ASD01882060
#	Creating user name:	WinNT
#	Creation time:	15. 06. 2019 19:43

#	Modifying user name:	WinNT
#	Modification time:	15. 06. 2019 19:43

#	Program:	/corina/corina34_cracker 3.40 0067  02.08.2006

@<TRIPOS>MOLECULE
ASD01882060
  52   56    0    0    0
SMALL
NO_CHARGES


@<TRIPOS>ATOM
   1 C1            -0.0161     1.3337     0.0094 C.2     
   2 N2             0.0021    -0.0041     0.0020 N.am    
   3 C3             1.2613    -0.4841    -0.0126 C.2     
   4 C4             2.1640     0.7337    -0.0147 C.3     
   5 N5             1.2200     1.8645     0.0004 N.am    
   6 O6            -1.0354     1.9955     0.0180 O.2     
   7 O7             1.6013    -1.6477    -0.0215 O.2     
   8 C8            -1.1986    -0.8435     0.0097 C.3     
   9 C9            -1.6312    -1.1279    -1.4300 C.3     
  10 C10            1.5609     3.2893     0.0041 C.3     
  11 C11            1.6916     3.7708     1.4261 C.ar    
  12 C12            2.8563     3.5247     2.1334 C.ar    
  13 C13            2.9810     3.9639     3.4368 C.ar    
  14 C14            1.9317     4.6564     4.0392 C.ar    
  15 C15            0.7622     4.9013     3.3215 C.ar    
  16 C16            0.6501     4.4619     2.0178 C.ar    
  17 C17            2.1410     6.5953     9.4058 C.2     
  18 N18            0.9343     7.1750     9.5248 N.am    
  19 C19            0.2080     7.0179     8.2597 C.3     
  20 C20            1.1289     6.2602     7.3359 C.ar    
  21 C21            1.0073     5.8235     6.0400 C.ar    
  22 C22            2.0591     5.1302     5.4384 C.ar    
  23 C23            3.2303     4.8832     6.1555 C.ar    
  24 C24            3.3519     5.3207     7.4547 C.ar    
  25 C25            2.3001     6.0152     8.0594 C.ar    
  26 O26            2.9833     6.5589    10.2816 O.2     
  27 C27            0.4276     7.8523    10.7209 C.3     
  28 C28            0.3151     7.0282    12.0051 C.3     
  29 C29            1.4107     8.0876    11.8694 C.3     
  30 Cl30           4.1614     2.6621     1.3809 Cl      
  31 H31            2.7924     0.7467     0.8759 H       
  32 H32            2.7753     0.7564    -0.9169 H       
  33 H33           -0.9813    -1.7838     0.5163 H       
  34 H34           -2.0010    -0.3250     0.5345 H       
  35 H35           -0.8288    -1.6464    -1.9548 H       
  36 H36           -2.5246    -1.7525    -1.4242 H       
  37 H37           -1.8486    -0.1876    -1.9366 H       
  38 H38            2.5060     3.4381    -0.5182 H       
  39 H39            0.7749     3.8522    -0.4994 H       
  40 H40            3.8893     3.7710     3.9883 H       
  41 H41           -0.0537     5.4373     3.7836 H       
  42 H42           -0.2544     4.6547     1.4601 H       
  43 H43           -0.7090     6.4514     8.4220 H       
  44 H44           -0.0248     7.9955     7.8375 H       
  45 H45            0.0997     6.0158     5.4871 H       
  46 H46            4.0438     4.3469     5.6897 H       
  47 H47            4.2599     5.1278     8.0068 H       
  48 H48           -0.3315     8.6142    10.5437 H       
  49 H49           -0.5177     7.2483    12.6730 H       
  50 H50            0.6181     5.9822    11.9601 H       
  51 H51            2.4345     7.7385    11.7351 H       
  52 H52            1.2986     9.0045    12.4480 H       
@<TRIPOS>BOND
   1    1    2 am
   2    1    5 am
   3    1    6 2
   4    2    3 am
   5    2    8 1
   6    3    4 1
   7    3    7 2
   8    4    5 1
   9    4   31 1
  10    4   32 1
  11    5   10 1
  12    8    9 1
  13    8   33 1
  14    8   34 1
  15    9   35 1
  16    9   36 1
  17    9   37 1
  18   10   11 1
  19   10   38 1
  20   10   39 1
  21   11   12 ar
  22   11   16 ar
  23   12   13 ar
  24   12   30 1
  25   13   14 ar
  26   13   40 1
  27   14   15 ar
  28   14   22 1
  29   15   16 ar
  30   15   41 1
  31   16   42 1
  32   17   18 am
  33   17   25 1
  34   17   26 2
  35   18   19 1
  36   18   27 1
  37   19   20 1
  38   19   43 1
  39   19   44 1
  40   20   21 ar
  41   20   25 ar
  42   21   22 ar
  43   21   45 1
  44   22   23 ar
  45   23   24 ar
  46   23   46 1
  47   24   25 ar
  48   24   47 1
  49   27   28 1
  50   27   29 1
  51   27   48 1
  52   28   29 1
  53   28   49 1
  54   28   50 1
  55   29   51 1
  56   29   52 1

#	End of record

