#	Name: ASD01916652
#	Creating user name:	WinNT
#	Creation time:	15. 06. 2019 20:07

#	Modifying user name:	WinNT
#	Modification time:	15. 06. 2019 20:07

#	Program:	/corina/corina34_cracker 3.40 0067  02.08.2006

@<TRIPOS>MOLECULE
ASD01916652
  22   23    0    0    0
SMALL
NO_CHARGES


@<TRIPOS>ATOM
   1 O1            -0.0161     1.3380     0.0094 O.3     
   2 C2             0.0021    -0.0041     0.0020 C.2     
   3 N3             1.2265    -0.4381    -0.0120 N.2     
   4 C4             2.0702     0.6294    -0.0143 C.ar    
   5 C5             1.2623     1.7767    -0.0005 C.ar    
   6 C6             1.8476     3.0333     0.0007 C.ar    
   7 C7             3.2218     3.1519    -0.0118 C.ar    
   8 C8             4.0258     2.0196    -0.0255 C.ar    
   9 C9             3.4594     0.7622    -0.0269 C.ar    
  10 F10            5.3704     2.1507    -0.0377 F       
  11 C11           -1.2228    -0.8820     0.0098 C.3     
  12 C12           -1.6226    -1.1868     1.4548 C.3     
  13 C13           -2.8190    -2.0444     1.4624 C.1     
  14 C14           -3.7732    -2.7283     1.4684 C.1     
  15 H15            1.2285     3.9182     0.0110 H       
  16 H16            3.6755     4.1320    -0.0112 H       
  17 H17            4.0881    -0.1159    -0.0373 H       
  18 H18           -2.0417    -0.3676    -0.4930 H       
  19 H19           -1.0049    -1.8143    -0.5113 H       
  20 H20           -0.8037    -1.7013     1.9576 H       
  21 H21           -1.8405    -0.2546     1.9759 H       
  22 H22           -4.6266    -3.3400     1.4738 H       
@<TRIPOS>BOND
   1    1    2 1
   2    1    5 1
   3    2    3 2
   4    2   11 1
   5    3    4 1
   6    4    5 ar
   7    4    9 ar
   8    5    6 ar
   9    6    7 ar
  10    6   15 1
  11    7    8 ar
  12    7   16 1
  13    8    9 ar
  14    8   10 1
  15    9   17 1
  16   11   12 1
  17   11   18 1
  18   11   19 1
  19   12   13 1
  20   12   20 1
  21   12   21 1
  22   13   14 3
  23   14   22 1

#	End of record

