#	Name: ASD03091246
#	Creating user name:	WinNT
#	Creation time:	15. 06. 2019 20:30

#	Modifying user name:	WinNT
#	Modification time:	15. 06. 2019 20:30

#	Program:	/corina/corina34_cracker 3.40 0067  02.08.2006

@<TRIPOS>MOLECULE
ASD03091246
  51   55    0    0    0
SMALL
NO_CHARGES


@<TRIPOS>ATOM
   1 N1            -0.0157     1.3034     0.0083 N.2     
   2 C2             0.0021    -0.0037     0.0375 C.2     
   3 N3             1.1591    -0.7348     0.0633 N.am    
   4 C4             2.3616    -0.1137     0.0592 C.2     
   5 C5             2.3658     1.3565     0.0260 C.ar    
   6 C6             3.5518     2.0869     0.0189 C.ar    
   7 C7             3.4971     3.4702    -0.0133 C.ar    
   8 C8             2.2670     4.1278    -0.0384 C.ar    
   9 C9             1.0965     3.4254    -0.0319 C.ar    
  10 C10            1.1219     2.0276     0.0010 C.ar    
  11 O11            3.4003    -0.7481     0.0826 O.2     
  12 C12           -1.2877    -0.7257     0.0436 C.ar    
  13 C13           -2.4891    -0.0151     0.0184 C.ar    
  14 C14           -3.7040    -2.0785     0.0545 C.ar    
  15 C15           -1.3097    -2.1210     0.0687 C.ar    
  16 C16           -3.6892    -0.6951     0.0238 C.ar    
  17 C17           -2.5171    -2.7889     0.0737 C.ar    
  18 C18           -4.9871     0.0703    -0.0034 C.3     
  19 N19            7.4096     4.9768    -0.8817 N.3     
  20 C20            7.1448     4.1123     0.2785 C.3     
  21 C21            5.8528     3.3340     0.0848 C.3     
  22 N22            4.6813     4.2121    -0.0202 N.3     
  23 C23            4.7697     5.0519    -1.2230 C.3     
  24 C24            5.3911     6.3989    -0.8854 C.3     
  25 C25            6.8836     6.3266    -0.6330 C.3     
  26 C26            7.0236     4.4508    -2.1735 C.3     
  27 C27            5.5175     4.2946    -2.3050 C.3     
  28 H28            1.1169    -1.7036     0.0848 H       
  29 H29            4.5049     1.5793     0.0387 H       
  30 H30            2.2404     5.2072    -0.0631 H       
  31 H31            0.1519     3.9486    -0.0512 H       
  32 H32           -2.4789     1.0646    -0.0048 H       
  33 H33           -4.6464    -2.6061     0.0589 H       
  34 H34           -0.3838    -2.6768     0.0837 H       
  35 H35           -2.5356    -3.8684     0.0977 H       
  36 H36           -5.2918     0.2322    -1.0373 H       
  37 H37           -5.7563    -0.5004     0.5170 H       
  38 H38           -4.8519     1.0325     0.4906 H       
  39 H39            7.9711     3.4119     0.4004 H       
  40 H40            7.0621     4.7283     1.1739 H       
  41 H41            5.9315     2.7401    -0.8258 H       
  42 H42            5.7153     2.6617     0.9317 H       
  43 H43            3.7573     5.2278    -1.5865 H       
  44 H44            5.2094     7.0848    -1.7129 H       
  45 H45            4.9047     6.7946     0.0062 H       
  46 H46            7.0830     6.6010     0.4028 H       
  47 H47            7.3903     7.0328    -1.2908 H       
  48 H48            7.3780     5.1276    -2.9510 H       
  49 H49            7.4936     3.4774    -2.3136 H       
  50 H50            5.2638     3.2367    -2.2369 H       
  51 H51            5.2062     4.6699    -3.2799 H       
@<TRIPOS>BOND
   1    1    2 2
   2    1   10 1
   3    2    3 1
   4    2   12 1
   5    3    4 am
   6    3   28 1
   7    4    5 1
   8    4   11 2
   9    5    6 ar
  10    5   10 ar
  11    6    7 ar
  12    6   29 1
  13    7    8 ar
  14    7   22 1
  15    8    9 ar
  16    8   30 1
  17    9   10 ar
  18    9   31 1
  19   12   13 ar
  20   12   15 ar
  21   13   16 ar
  22   13   32 1
  23   14   16 ar
  24   14   17 ar
  25   14   33 1
  26   15   17 ar
  27   15   34 1
  28   16   18 1
  29   17   35 1
  30   18   36 1
  31   18   37 1
  32   18   38 1
  33   19   20 1
  34   19   25 1
  35   19   26 1
  36   20   21 1
  37   20   39 1
  38   20   40 1
  39   21   22 1
  40   21   41 1
  41   21   42 1
  42   22   23 1
  43   23   24 1
  44   23   27 1
  45   23   43 1
  46   24   25 1
  47   24   44 1
  48   24   45 1
  49   25   46 1
  50   25   47 1
  51   26   27 1
  52   26   48 1
  53   26   49 1
  54   27   50 1
  55   27   51 1

#	End of record

