#	Name: ASD01813109
#	Creating user name:	WinNT
#	Creation time:	15. 06. 2019 19:29

#	Modifying user name:	WinNT
#	Modification time:	15. 06. 2019 19:29

#	Program:	/corina/corina34_cracker 3.40 0067  02.08.2006

@<TRIPOS>MOLECULE
ASD01813109
  54   57    0    0    0
SMALL
NO_CHARGES


@<TRIPOS>ATOM
   1 C1             0.0637     1.3928    -0.0302 C.2     
   2 C2             0.0927     0.0285    -0.0341 C.2     
   3 C3             1.3347    -0.6321    -0.0683 C.2     
   4 C4             2.5223     0.1271    -0.0978 C.2     
   5 N5             2.4682     1.4743    -0.0927 N.am    
   6 C6             3.6285     2.1897    -0.1211 C.2     
   7 C7             3.6089     3.5417    -0.1170 C.2     
   8 C8             2.3883     4.2294    -0.0834 C.2     
   9 C9             1.2208     3.5242    -0.0548 C.2     
  10 C10            1.2620     2.1200    -0.0600 C.2     
  11 C11            1.3933    -2.0955    -0.0728 C.2     
  12 O12            0.3653    -2.7454    -0.0469 O.2     
  13 O13            2.5871    -2.7227    -0.1056 O.3     
  14 O14            3.6031    -0.4370    -0.1275 O.2     
  15 C15           -1.2569     2.1182    -0.0001 C.3     
  16 N16           -1.7737     2.2514    -1.3687 N.3     
  17 C17           -3.1595     2.7371    -1.3630 C.3     
  18 C18           -3.7115     2.7250    -2.7903 C.3     
  19 C19           -2.8410     3.6200    -3.6766 C.3     
  20 C20           -1.3940     3.1216    -3.6268 C.3     
  21 C21           -0.9091     3.1222    -2.1753 C.3     
  22 C22           -3.3439     3.5650    -5.0962 C.ar    
  23 C23           -4.6649     3.8635    -5.3735 C.ar    
  24 C24           -5.1262     3.8131    -6.6756 C.ar    
  25 C25           -4.2665     3.4645    -7.7004 C.ar    
  26 C26           -2.9454     3.1669    -7.4233 C.ar    
  27 C27           -2.4829     3.2216    -6.1217 C.ar    
  28 C28           -2.9024     5.0393    -3.1738 C.2     
  29 O29           -3.6567     5.3300    -2.2767 O.2     
  30 C30           -2.0224     6.0959    -3.7906 C.3     
  31 H31           -0.8268    -0.5376    -0.0109 H       
  32 H32            4.5749     1.6701    -0.1467 H       
  33 H33            4.5370     4.0935    -0.1394 H       
  34 H34            2.3720     5.3093    -0.0798 H       
  35 H35            0.2729     4.0411    -0.0284 H       
  36 H36            2.5751    -3.6896    -0.1073 H       
  37 H37           -1.9678     1.5537     0.6034 H       
  38 H38           -1.1178     3.1084     0.4337 H       
  39 H39           -3.7687     2.0895    -0.7325 H       
  40 H40           -3.1862     3.7541    -0.9719 H       
  41 H41           -3.6979     1.7061    -3.1771 H       
  42 H42           -4.7349     3.1003    -2.7878 H       
  43 H43           -1.3439     2.1089    -4.0268 H       
  44 H44           -0.7615     3.7803    -4.2220 H       
  45 H45           -0.9464     4.1375    -1.7803 H       
  46 H46            0.1161     2.7543    -2.1347 H       
  47 H47           -5.3365     4.1358    -4.5728 H       
  48 H48           -6.1584     4.0456    -6.8921 H       
  49 H49           -4.6272     3.4244    -8.7177 H       
  50 H50           -2.2738     2.8943    -8.2239 H       
  51 H51           -1.4498     2.9927    -5.9056 H       
  52 H52           -1.3542     5.6336    -4.5170 H       
  53 H53           -2.6433     6.8397    -4.2899 H       
  54 H54           -1.4334     6.5787    -3.0108 H       
@<TRIPOS>BOND
   1    1    2 1
   2    1   10 2
   3    1   15 1
   4    2    3 2
   5    2   31 1
   6    3    4 1
   7    3   11 1
   8    4    5 am
   9    4   14 2
  10    5    6 1
  11    5   10 1
  12    6    7 2
  13    6   32 1
  14    7    8 1
  15    7   33 1
  16    8    9 2
  17    8   34 1
  18    9   10 1
  19    9   35 1
  20   11   12 2
  21   11   13 1
  22   13   36 1
  23   15   16 1
  24   15   37 1
  25   15   38 1
  26   16   17 1
  27   16   21 1
  28   17   18 1
  29   17   39 1
  30   17   40 1
  31   18   19 1
  32   18   41 1
  33   18   42 1
  34   19   20 1
  35   19   22 1
  36   19   28 1
  37   20   21 1
  38   20   43 1
  39   20   44 1
  40   21   45 1
  41   21   46 1
  42   22   23 ar
  43   22   27 ar
  44   23   24 ar
  45   23   47 1
  46   24   25 ar
  47   24   48 1
  48   25   26 ar
  49   25   49 1
  50   26   27 ar
  51   26   50 1
  52   27   51 1
  53   28   29 2
  54   28   30 1
  55   30   52 1
  56   30   53 1
  57   30   54 1

#	End of record

