#	Name: ASD02190002
#	Creating user name:	WinNT
#	Creation time:	15. 06. 2019 20:18

#	Modifying user name:	WinNT
#	Modification time:	15. 06. 2019 20:18

#	Program:	/corina/corina34_cracker 3.40 0067  02.08.2006

@<TRIPOS>MOLECULE
ASD02190002
  45   47    0    0    0
SMALL
NO_CHARGES


@<TRIPOS>ATOM
   1 C1             0.1575     0.7462    -0.0231 C.ar    
   2 C2             0.4176    -0.6124     0.0545 C.ar    
   3 C3             1.7395    -1.0648     0.1052 C.ar    
   4 C4             2.7862    -0.1433     0.0771 C.ar    
   5 C5             2.5111     1.2097    -0.0005 C.ar    
   6 C6             1.2016     1.6518    -0.0503 C.ar    
   7 C7             2.0274    -2.5172     0.1889 C.ar    
   8 C8             2.6846    -3.1613    -0.8578 C.ar    
   9 C9             2.9502    -4.5133    -0.7752 C.ar    
  10 C10            2.5656    -5.2294     0.3436 C.ar    
  11 C11            1.9124    -4.5952     1.3868 C.ar    
  12 C12            1.6468    -3.2417     1.3170 C.ar    
  13 Cl13           1.4329    -5.5014     2.7878 Cl      
  14 O14           -0.6086    -1.5021     0.0818 O.3     
  15 C15           -1.9326    -0.9673     0.0272 C.3     
  16 F16            4.0665    -0.5719     0.1261 F       
  17 C17            3.6417     2.2056    -0.0309 C.3     
  18 C18            4.1288     2.3695    -1.4476 C.ar    
  19 C19            3.5650     3.3328    -2.2639 C.ar    
  20 C20            4.0092     3.4855    -3.5627 C.ar    
  21 C21            5.0235     2.6708    -4.0484 C.ar    
  22 C22            5.5879     1.7047    -3.2260 C.ar    
  23 C23            5.1426     1.5601    -1.9266 C.ar    
  24 N24            5.4755     2.8227    -5.3641 N.am    
  25 C25            5.5319     4.0492    -5.9199 C.2     
  26 N26            6.0547     4.2074    -7.1520 N.am    
  27 O27            5.1112     5.0131    -5.3097 O.2     
  28 H28           -0.8626     1.0981    -0.0669 H       
  29 H29            0.9937     2.7099    -0.1109 H       
  30 H30            2.9852    -2.6035    -1.7323 H       
  31 H31            3.4591    -5.0130    -1.5861 H       
  32 H32            2.7752    -6.2871     0.4037 H       
  33 H33            1.1375    -2.7475     2.1311 H       
  34 H34           -2.0937    -0.3082     0.8803 H       
  35 H35           -2.0587    -0.4030    -0.8968 H       
  36 H36           -2.6553    -1.7827     0.0565 H       
  37 H37            3.2902     3.1660     0.3459 H       
  38 H38            4.4588     1.8468     0.5950 H       
  39 H39            2.7763     3.9661    -1.8855 H       
  40 H40            3.5680     4.2375    -4.2000 H       
  41 H41            6.3766     1.0692    -3.6009 H       
  42 H42            5.5814     0.8092    -1.2863 H       
  43 H43            5.7482     2.0452    -5.8761 H       
  44 H44            6.3903     3.4384    -7.6388 H       
  45 H45            6.0953     5.0901    -7.5520 H       
@<TRIPOS>BOND
   1    1    2 ar
   2    1    6 ar
   3    1   28 1
   4    2    3 ar
   5    2   14 1
   6    3    4 ar
   7    3    7 1
   8    4    5 ar
   9    4   16 1
  10    5    6 ar
  11    5   17 1
  12    6   29 1
  13    7    8 ar
  14    7   12 ar
  15    8    9 ar
  16    8   30 1
  17    9   10 ar
  18    9   31 1
  19   10   11 ar
  20   10   32 1
  21   11   12 ar
  22   11   13 1
  23   12   33 1
  24   14   15 1
  25   15   34 1
  26   15   35 1
  27   15   36 1
  28   17   18 1
  29   17   37 1
  30   17   38 1
  31   18   19 ar
  32   18   23 ar
  33   19   20 ar
  34   19   39 1
  35   20   21 ar
  36   20   40 1
  37   21   22 ar
  38   21   24 1
  39   22   23 ar
  40   22   41 1
  41   23   42 1
  42   24   25 am
  43   24   43 1
  44   25   26 am
  45   25   27 2
  46   26   44 1
  47   26   45 1

#	End of record

