#	Name: ASD01883926
#	Creating user name:	WinNT
#	Creation time:	15. 06. 2019 19:47

#	Modifying user name:	WinNT
#	Modification time:	15. 06. 2019 19:47

#	Program:	/corina/corina34_cracker 3.40 0067  02.08.2006

@<TRIPOS>MOLECULE
ASD01883926
  59   61    0    0    0
SMALL
NO_CHARGES


@<TRIPOS>ATOM
   1 C1            -0.0170     1.4009     0.0097 C.2     
   2 C2             0.0021    -0.0041     0.0020 C.2     
   3 C3            -1.2235    -0.6971     0.0105 C.2     
   4 C4            -2.3887    -0.0098     0.0258 C.2     
   5 N5            -2.4085     1.3474     0.0332 N.am    
   6 C6            -1.2693     2.0642     0.0312 C.2     
   7 C7            -3.6960     2.0462     0.0498 C.3     
   8 C8            -4.1298     2.2817     1.4980 C.3     
   9 C9            -5.4744     3.0115     1.5153 C.3     
  10 C10           -5.9683     3.1366     2.9579 C.3     
  11 C11           -5.3050     4.4071     0.9114 C.3     
  12 O12           -1.3147     3.2825     0.0383 O.2     
  13 C13            1.2048     2.1477     0.0021 C.1     
  14 N14            2.1741     2.7402    -0.0040 N.1     
  15 C15            1.2848    -0.7407    -0.0152 C.ar    
  16 C16            1.6499    -1.5380     1.0708 C.ar    
  17 C17            2.8475    -2.2223     1.0484 C.ar    
  18 C18            3.6861    -2.1196    -0.0473 C.ar    
  19 C19            3.3302    -1.3310    -1.1271 C.ar    
  20 C20            2.1327    -0.6461    -1.1199 C.ar    
  21 C21            4.9931    -2.8697    -0.0646 C.3     
  22 N22            4.7870    -4.1991    -0.6547 N.3     
  23 C23            6.0704    -4.8679    -0.9067 C.3     
  24 C24            5.8371    -6.1093    -1.7285 C.ar    
  25 C25            5.6596    -6.0099    -3.0979 C.ar    
  26 C26            5.4452    -7.1516    -3.8519 C.ar    
  27 C27            5.4087    -8.3883    -3.2368 C.ar    
  28 C28            5.5862    -8.4863    -1.8690 C.ar    
  29 C29            5.8059    -7.3481    -1.1162 C.ar    
  30 C30            3.9214    -5.0249     0.1977 C.3     
  31 F31            5.6950    -4.8001    -3.6982 F       
  32 H32           -1.2334    -1.7771     0.0044 H       
  33 H33           -3.3225    -0.5523     0.0318 H       
  34 H34           -3.5958     3.0044    -0.4599 H       
  35 H35           -4.4449     1.4401    -0.4599 H       
  36 H36           -4.2300     1.3235     2.0077 H       
  37 H37           -3.3809     2.8878     2.0076 H       
  38 H38           -6.2012     2.4482     0.9300 H       
  39 H39           -5.2416     3.7000     3.5432 H       
  40 H40           -6.9262     3.6566     2.9703 H       
  41 H41           -6.0890     2.1424     3.3881 H       
  42 H42           -4.9532     4.3180    -0.1164 H       
  43 H43           -6.2630     4.9270     0.9237 H       
  44 H44           -4.5783     4.9705     1.4967 H       
  45 H45            0.9963    -1.6187     1.9268 H       
  46 H46            3.1313    -2.8393     1.8882 H       
  47 H47            3.9894    -1.2548    -1.9792 H       
  48 H48            1.8560    -0.0308    -1.9633 H       
  49 H49            5.7211    -2.3173    -0.6587 H       
  50 H50            5.3633    -2.9780     0.9548 H       
  51 H51            6.7320    -4.1922    -1.4488 H       
  52 H52            6.5300    -5.1419     0.0430 H       
  53 H53            5.3063    -7.0752    -4.9201 H       
  54 H54            5.2412    -9.2788    -3.8245 H       
  55 H55            5.5571    -9.4534    -1.3891 H       
  56 H56            5.9444    -7.4258    -0.0480 H       
  57 H57            2.9524    -4.5388     0.3109 H       
  58 H58            3.7854    -6.0036    -0.2625 H       
  59 H59            4.3842    -5.1453     1.1772 H       
@<TRIPOS>BOND
   1    1    2 2
   2    1   13 1
   3    1    6 1
   4    2    3 1
   5    2   15 1
   6    3    4 2
   7    3   32 1
   8    4    5 1
   9    4   33 1
  10    5    7 1
  11    5    6 am
  12    6   12 2
  13    7    8 1
  14    7   34 1
  15    7   35 1
  16    8    9 1
  17    8   36 1
  18    8   37 1
  19    9   10 1
  20    9   11 1
  21    9   38 1
  22   10   39 1
  23   10   40 1
  24   10   41 1
  25   11   42 1
  26   11   43 1
  27   11   44 1
  28   13   14 3
  29   15   16 ar
  30   15   20 ar
  31   16   17 ar
  32   16   45 1
  33   17   18 ar
  34   17   46 1
  35   18   19 ar
  36   18   21 1
  37   19   20 ar
  38   19   47 1
  39   20   48 1
  40   21   22 1
  41   21   49 1
  42   21   50 1
  43   22   23 1
  44   22   30 1
  45   23   24 1
  46   23   51 1
  47   23   52 1
  48   24   25 ar
  49   24   29 ar
  50   25   26 ar
  51   25   31 1
  52   26   27 ar
  53   26   53 1
  54   27   28 ar
  55   27   54 1
  56   28   29 ar
  57   28   55 1
  58   29   56 1
  59   30   57 1
  60   30   58 1
  61   30   59 1

#	End of record

