#	Name: ASD01812138
#	Creating user name:	WinNT
#	Creation time:	15. 06. 2019 19:28

#	Modifying user name:	WinNT
#	Modification time:	15. 06. 2019 19:28

#	Program:	/corina/corina34_cracker 3.40 0067  02.08.2006

@<TRIPOS>MOLECULE
ASD01812138
  62   66    0    0    0
SMALL
NO_CHARGES


@<TRIPOS>ATOM
   1 C1            -0.0168     1.3890     0.0097 C.ar    
   2 C2             0.0021    -0.0041     0.0020 C.ar    
   3 C3             1.1787    -0.6895    -0.0125 C.ar    
   4 C4             2.3941     0.0134    -0.0203 C.ar    
   5 C5             2.3756     1.4326    -0.0130 C.ar    
   6 C6             1.1407     2.1050     0.0025 C.ar    
   7 C7             3.6272    -0.6637    -0.0358 C.ar    
   8 C8             4.7900     0.0351    -0.0436 C.ar    
   9 C9             4.7882     1.4439    -0.0361 C.ar    
  10 C10            3.5864     2.1337    -0.0214 C.ar    
  11 C11            3.6565    -2.1704    -0.0431 C.3     
  12 C12            5.8880     2.4286    -0.0415 C.2     
  13 N13            5.3952     3.6790    -0.0301 N.am    
  14 C14            3.9298     3.6021    -0.0168 C.3     
  15 O15            7.0708     2.1485    -0.0540 O.2     
  16 C16            6.1876     4.9112    -0.0312 C.3     
  17 C17            7.0575     4.9570    -1.2890 C.3     
  18 C18            7.8851     6.2438    -1.2901 C.3     
  19 C19            8.7800     6.2758    -0.0495 C.3     
  20 C20            7.9100     6.2300     1.2082 C.3     
  21 C21            7.0825     4.9431     1.2094 C.3     
  22 O22            6.2217     4.9271    -2.4476 O.3     
  23 N23            3.4120    -2.6584    -1.4069 N.3     
  24 C24            3.6658    -4.1021    -1.5030 C.3     
  25 C25            3.2285    -4.6035    -2.8834 C.3     
  26 N26            3.8928    -3.7857    -3.9096 N.am    
  27 C27            3.7980    -2.3219    -3.8017 C.3     
  28 C28            4.2129    -1.9103    -2.3851 C.3     
  29 C29            4.5701    -4.3623    -4.9221 C.2     
  30 O30            4.6377    -5.5710    -4.9958 O.2     
  31 C31            5.2433    -3.5051    -5.9628 C.3     
  32 H32           -0.9637     1.9083     0.0170 H       
  33 H33           -0.9306    -0.5486     0.0080 H       
  34 H34            1.1770    -1.7695    -0.0175 H       
  35 H35            1.1108     3.1846     0.0079 H       
  36 H36            5.7302    -0.4960    -0.0555 H       
  37 H37            4.6326    -2.5165     0.2971 H       
  38 H38            2.8831    -2.5521     0.6235 H       
  39 H39            3.5210     4.0855    -0.9040 H       
  40 H40            3.5378     4.0759     0.8832 H       
  41 H41            5.5198     5.7726    -0.0198 H       
  42 H42            7.7253     4.0956    -1.3004 H       
  43 H43            8.5048     6.2765    -2.1862 H       
  44 H44            7.2173     7.1053    -1.2787 H       
  45 H45            9.4478     5.4144    -0.0610 H       
  46 H46            9.3695     7.1926    -0.0504 H       
  47 H47            8.5476     6.2528     2.0920 H       
  48 H48            7.2422     7.0914     1.2196 H       
  49 H49            6.4627     4.9105     2.1054 H       
  50 H50            7.7503     4.0817     1.1979 H       
  51 H51            6.7071     4.9535    -3.2836 H       
  52 H52            4.7301    -4.2941    -1.3666 H       
  53 H53            3.0999    -4.6230    -0.7307 H       
  54 H54            3.5187    -5.6474    -3.0026 H       
  55 H55            2.1472    -4.5076    -2.9821 H       
  56 H56            4.4648    -1.8573    -4.5281 H       
  57 H57            2.7715    -2.0067    -3.9887 H       
  58 H58            4.0438    -0.8417    -2.2526 H       
  59 H59            5.2696    -2.1329    -2.2365 H       
  60 H60            6.2633    -3.2850    -5.6478 H       
  61 H61            5.2637    -4.0371    -6.9140 H       
  62 H62            4.6900    -2.5733    -6.0795 H       
@<TRIPOS>BOND
   1    1    2 ar
   2    1    6 ar
   3    1   32 1
   4    2    3 ar
   5    2   33 1
   6    3    4 ar
   7    3   34 1
   8    4    5 ar
   9    4    7 ar
  10    5    6 ar
  11    5   10 ar
  12    6   35 1
  13    7    8 ar
  14    7   11 1
  15    8    9 ar
  16    8   36 1
  17    9   10 ar
  18    9   12 1
  19   10   14 1
  20   11   23 1
  21   11   37 1
  22   11   38 1
  23   12   13 am
  24   12   15 2
  25   13   14 1
  26   13   16 1
  27   14   39 1
  28   14   40 1
  29   16   17 1
  30   16   21 1
  31   16   41 1
  32   17   18 1
  33   17   22 1
  34   17   42 1
  35   18   19 1
  36   18   43 1
  37   18   44 1
  38   19   20 1
  39   19   45 1
  40   19   46 1
  41   20   21 1
  42   20   47 1
  43   20   48 1
  44   21   49 1
  45   21   50 1
  46   22   51 1
  47   23   24 1
  48   23   28 1
  49   24   25 1
  50   24   52 1
  51   24   53 1
  52   25   26 1
  53   25   54 1
  54   25   55 1
  55   26   27 1
  56   26   29 am
  57   27   28 1
  58   27   56 1
  59   27   57 1
  60   28   58 1
  61   28   59 1
  62   29   31 1
  63   29   30 2
  64   31   60 1
  65   31   61 1
  66   31   62 1

#	End of record

