#	Name: ASD01900528
#	Creating user name:	WinNT
#	Creation time:	15. 06. 2019 19:52

#	Modifying user name:	WinNT
#	Modification time:	15. 06. 2019 19:52

#	Program:	/corina/corina34_cracker 3.40 0067  02.08.2006

@<TRIPOS>MOLECULE
ASD01900528
  26   28    0    0    0
SMALL
NO_CHARGES


@<TRIPOS>ATOM
   1 O1             0.0260     1.4078     0.3659 O.3     
   2 N2             0.0458    -0.0054     0.3613 N.2     
   3 C3             1.2467    -0.4259     0.0743 C.2     
   4 C4             2.0883     0.7635    -0.1270 C.ar    
   5 C5             1.2564     1.8762     0.0718 C.ar    
   6 C6             1.7827     3.1557    -0.0545 C.ar    
   7 C7             3.1132     3.3239    -0.3729 C.ar    
   8 C8             3.9362     2.2247    -0.5695 C.ar    
   9 C9             3.4329     0.9485    -0.4483 C.ar    
  10 N10            1.6545    -1.7496    -0.0231 N.pl3   
  11 C11            0.7162    -2.7796     0.0853 C.ar    
  12 C12           -0.5989    -2.5670    -0.3077 C.ar    
  13 C13           -1.5245    -3.5889    -0.1994 C.ar    
  14 C14           -1.1401    -4.8223     0.3007 C.ar    
  15 C15            0.1685    -5.0350     0.6921 C.ar    
  16 C16            1.0985    -4.0198     0.5808 C.ar    
  17 F17           -2.8042    -3.3840    -0.5811 F       
  18 H18            1.1499     4.0178     0.0964 H       
  19 H19            3.5184     4.3202    -0.4705 H       
  20 H20            4.9768     2.3704    -0.8189 H       
  21 H21            4.0764     0.0948    -0.6017 H       
  22 H22            2.5907    -1.9593    -0.1664 H       
  23 H23           -0.8983    -1.6051    -0.6969 H       
  24 H24           -1.8643    -5.6191     0.3854 H       
  25 H25            0.4650    -5.9975     1.0819 H       
  26 H26            2.1215    -4.1888     0.8828 H       
@<TRIPOS>BOND
   1    1    2 1
   2    1    5 1
   3    2    3 2
   4    3    4 1
   5    3   10 1
   6    4    5 ar
   7    4    9 ar
   8    5    6 ar
   9    6    7 ar
  10    6   18 1
  11    7    8 ar
  12    7   19 1
  13    8    9 ar
  14    8   20 1
  15    9   21 1
  16   10   11 1
  17   10   22 1
  18   11   12 ar
  19   11   16 ar
  20   12   13 ar
  21   12   23 1
  22   13   14 ar
  23   13   17 1
  24   14   15 ar
  25   14   24 1
  26   15   16 ar
  27   15   25 1
  28   16   26 1

#	End of record

