#	Name: ASD01814428
#	Creating user name:	WinNT
#	Creation time:	15. 06. 2019 19:32

#	Modifying user name:	WinNT
#	Modification time:	15. 06. 2019 19:32

#	Program:	/corina/corina34_cracker 3.40 0067  02.08.2006

@<TRIPOS>MOLECULE
ASD01814428
  69   75    0    0    0
SMALL
NO_CHARGES


@<TRIPOS>ATOM
   1 C1            -0.0167     1.3818     0.0096 C.ar    
   2 C2             0.0021    -0.0041     0.0020 C.ar    
   3 C3             1.1970    -0.6935    -0.0127 C.ar    
   4 C4             2.3990     0.0036    -0.0204 C.ar    
   5 C5             2.3750     1.4118    -0.0131 C.ar    
   6 C6             1.1663     2.0939     0.0022 C.ar    
   7 N7             3.6103    -0.6575    -0.0347 N.pl3   
   8 N8             4.7456    -0.0608    -0.0419 N.2     
   9 C9             4.8828     1.2398    -0.0366 C.2     
  10 C10            3.6771     2.1039    -0.0219 C.2     
  11 C11            6.0123     2.1723    -0.0425 C.2     
  12 N12            5.4768     3.4119    -0.0316 N.am    
  13 N13            4.0816     3.3386    -0.0196 N.2     
  14 C14            3.5988    -2.1224    -0.0414 C.3     
  15 C15            3.5818    -2.6181    -1.4645 C.ar    
  16 C16            4.7733    -2.8541    -2.1262 C.ar    
  17 C17            4.7637    -3.3081    -3.4295 C.ar    
  18 C18            3.5505    -3.5291    -4.0786 C.ar    
  19 C19            2.3531    -3.2901    -3.4069 C.ar    
  20 C20            2.3746    -2.8408    -2.1022 C.ar    
  21 O21            7.1981     1.8866    -0.0544 O.2     
  22 C22            6.2491     4.6568    -0.0324 C.3     
  23 C23            5.8946     5.4780    -1.2749 C.3     
  24 O24            6.6055     6.7173    -1.2439 O.3     
  25 C25            6.2939     7.5408    -0.1184 C.3     
  26 C26            6.6644     6.8025     1.1705 C.3     
  27 C27            5.9109     5.4698     1.2210 C.3     
  28 C28            3.5337    -4.0166    -5.4797 C.ar    
  29 C29            4.7253    -4.2572    -6.1572 C.ar    
  30 N30            4.7158    -4.6899    -7.4022 N.ar    
  31 C31            3.5845    -4.9121    -8.0541 C.ar    
  32 C32            2.3530    -4.6942    -7.4420 C.ar    
  33 C33            2.3192    -4.2464    -6.1365 C.ar    
  34 N34            3.6272    -5.3681    -9.3656 N.3     
  35 C35            5.0152    -5.5319    -9.8216 C.3     
  36 C36            5.0158    -6.0912   -11.2468 C.3     
  37 O37            4.2663    -5.2184   -12.0963 O.3     
  38 C38            2.9096    -5.0367   -11.6819 C.3     
  39 C39            2.8876    -4.4668   -10.2611 C.3     
  40 H40           -0.9605     1.9069     0.0170 H       
  41 H41           -0.9294    -0.5506     0.0080 H       
  42 H42            1.1982    -1.7735    -0.0178 H       
  43 H43            1.1511     3.1738     0.0077 H       
  44 H44            4.4906    -2.4951     0.4625 H       
  45 H45            2.7107    -2.4812     0.4789 H       
  46 H46            5.7129    -2.6825    -1.6222 H       
  47 H47            5.6946    -3.4914    -3.9455 H       
  48 H48            1.4101    -3.4594    -3.9054 H       
  49 H49            1.4473    -2.6556    -1.5805 H       
  50 H50            7.3141     4.4248    -0.0408 H       
  51 H51            6.1728     4.9216    -2.1699 H       
  52 H52            4.8225     5.6742    -1.2872 H       
  53 H53            6.8597     8.4704    -0.1803 H       
  54 H54            5.2269     7.7640    -0.1156 H       
  55 H55            7.7380     6.6148     1.1870 H       
  56 H56            6.3868     7.4107     2.0314 H       
  57 H57            4.8379     5.6587     1.2545 H       
  58 H58            6.2125     4.9138     2.1087 H       
  59 H59            5.6677    -4.0872    -5.6577 H       
  60 H60            1.4351    -4.8775    -7.9807 H       
  61 H61            1.3782    -4.0690    -5.6369 H       
  62 H62            5.5187    -4.5653    -9.8097 H       
  63 H63            5.5367    -6.2229    -9.1592 H       
  64 H64            6.0411    -6.1606   -11.6100 H       
  65 H65            4.5602    -7.0814   -11.2494 H       
  66 H66            2.4116    -4.3435   -12.3599 H       
  67 H67            2.3927    -5.9963   -11.6972 H       
  68 H68            1.8561    -4.3802    -9.9196 H       
  69 H69            3.3571    -3.4831   -10.2562 H       
@<TRIPOS>BOND
   1    1    2 ar
   2    1    6 ar
   3    1   40 1
   4    2    3 ar
   5    2   41 1
   6    3    4 ar
   7    3   42 1
   8    4    5 ar
   9    4    7 1
  10    5    6 ar
  11    5   10 1
  12    6   43 1
  13    7    8 1
  14    7   14 1
  15    8    9 2
  16    9   10 1
  17    9   11 1
  18   10   13 2
  19   11   12 am
  20   11   21 2
  21   12   13 1
  22   12   22 1
  23   14   15 1
  24   14   44 1
  25   14   45 1
  26   15   16 ar
  27   15   20 ar
  28   16   17 ar
  29   16   46 1
  30   17   18 ar
  31   17   47 1
  32   18   19 ar
  33   18   28 1
  34   19   20 ar
  35   19   48 1
  36   20   49 1
  37   22   23 1
  38   22   27 1
  39   22   50 1
  40   23   24 1
  41   23   51 1
  42   23   52 1
  43   24   25 1
  44   25   26 1
  45   25   53 1
  46   25   54 1
  47   26   27 1
  48   26   55 1
  49   26   56 1
  50   27   57 1
  51   27   58 1
  52   28   29 ar
  53   28   33 ar
  54   29   30 ar
  55   29   59 1
  56   30   31 ar
  57   31   32 ar
  58   31   34 1
  59   32   33 ar
  60   32   60 1
  61   33   61 1
  62   34   35 1
  63   34   39 1
  64   35   36 1
  65   35   62 1
  66   35   63 1
  67   36   37 1
  68   36   64 1
  69   36   65 1
  70   37   38 1
  71   38   39 1
  72   38   66 1
  73   38   67 1
  74   39   68 1
  75   39   69 1

#	End of record

