#	Name: ASD05380040
#	Creating user name:	WinNT
#	Creation time:	15. 06. 2019 20:59

#	Modifying user name:	WinNT
#	Modification time:	15. 06. 2019 20:59

#	Program:	/corina/corina34_cracker 3.40 0067  02.08.2006

@<TRIPOS>MOLECULE
ASD05380040
  76   81    0    0    0
SMALL
NO_CHARGES


@<TRIPOS>ATOM
   1 C1             0.0087     1.7649    -0.1414 C.ar    
   2 C2             0.2427     0.3720    -0.1779 C.ar    
   3 C3             1.0686     2.6550    -0.3004 C.ar    
   4 C4             2.3426     2.1663    -0.4929 C.ar    
   5 C5             2.5760     0.7981    -0.5299 C.ar    
   6 C6             1.5424    -0.0984    -0.3738 C.ar    
   7 C7             0.8236     4.1415    -0.2626 C.3     
   8 N8            -0.8045    -0.4757    -0.0203 N.2     
   9 C9            -2.0131    -0.0380     0.1628 C.2     
  10 N10           -2.3300     1.2843     0.2118 N.am    
  11 C11           -1.3699     2.2281     0.0731 C.2     
  12 C12           -3.6607     1.6721     0.4128 C.ar    
  13 C13           -4.6018     1.4748    -0.5891 C.ar    
  14 C14           -4.0430     2.2494     1.6165 C.ar    
  15 C15           -5.3561     2.6303     1.8118 C.ar    
  16 C16           -6.2899     2.4369     0.8104 C.ar    
  17 C17           -5.9134     1.8579    -0.3876 C.ar    
  18 C18           -3.1213    -1.0456     0.3290 C.3     
  19 N19           -2.8322    -2.2283    -0.4859 N.pl3   
  20 C20           -1.6790    -2.9592    -0.2601 C.ar    
  21 N21           -0.8231    -2.6022     0.6920 N.ar    
  22 O22           -1.6390     3.4146     0.1148 O.2     
  23 C23           -1.3886    -4.0994    -1.0281 C.ar    
  24 C24           -0.2025    -4.8007    -0.7523 C.ar    
  25 N25            0.5954    -4.3643     0.2167 N.ar    
  26 C26            0.2797    -3.2936     0.9146 C.ar    
  27 N27           -2.0074    -4.7461    -2.0450 N.2     
  28 C28           -1.2942    -5.7744    -2.4021 C.2     
  29 N29           -0.1705    -5.8512    -1.6342 N.pl3   
  30 C30           -3.2239    -1.4528     1.8002 C.3     
  31 C31           -4.4267    -2.3792     1.9903 C.3     
  32 C32           -4.5293    -2.7863     3.4616 C.3     
  33 C33           -5.7321    -3.7127     3.6517 C.3     
  34 N34           -5.8304    -4.1025     5.0604 N.am    
  35 C35           -6.8211    -4.9216     5.4654 C.2     
  36 O36           -6.9114    -5.2799     6.7601 O.3     
  37 O37           -7.6328    -5.3367     4.6621 O.2     
  38 C38           -8.0037    -6.1644     7.1246 C.3     
  39 C39           -7.9440    -6.4538     8.6023 C.ar    
  40 C40           -8.6139    -5.6372     9.4941 C.ar    
  41 C41           -8.5591    -5.9026    10.8497 C.ar    
  42 C42           -7.8348    -6.9848    11.3134 C.ar    
  43 C43           -7.1656    -7.8019    10.4215 C.ar    
  44 C44           -7.2239    -7.5391     9.0656 C.ar    
  45 H45            3.1665     2.8535    -0.6166 H       
  46 H46            3.5807     0.4325    -0.6824 H       
  47 H47            1.7363    -1.1604    -0.4036 H       
  48 H48            0.7999     4.4796     0.7734 H       
  49 H49            1.6244     4.6554    -0.7943 H       
  50 H50           -0.1308     4.3647    -0.7395 H       
  51 H51           -4.3084     1.0227    -1.5250 H       
  52 H52           -3.3143     2.4001     2.3992 H       
  53 H53           -5.6540     3.0794     2.7477 H       
  54 H54           -7.3162     2.7350     0.9658 H       
  55 H55           -6.6449     1.7086    -1.1680 H       
  56 H56           -4.0647    -0.6045     0.0074 H       
  57 H57           -3.4491    -2.4989    -1.1838 H       
  58 H58            0.9479    -2.9681     1.6981 H       
  59 H59           -1.5542    -6.4651    -3.1906 H       
  60 H60            0.5246    -6.5246    -1.6997 H       
  61 H61           -2.3137    -1.9735     2.0975 H       
  62 H62           -3.3504    -0.5621     2.4157 H       
  63 H63           -5.3369    -1.8584     1.6931 H       
  64 H64           -4.3001    -3.2698     1.3748 H       
  65 H65           -3.6191    -3.3071     3.7588 H       
  66 H66           -4.6559    -1.8957     4.0771 H       
  67 H67           -6.6423    -3.1919     3.3544 H       
  68 H68           -5.6055    -4.6033     3.0362 H       
  69 H69           -5.1824    -3.7712     5.7017 H       
  70 H70           -8.9537    -5.6861     6.8861 H       
  71 H71           -7.9169    -7.0975     6.5679 H       
  72 H72           -9.1799    -4.7917     9.1319 H       
  73 H73           -9.0819    -5.2642    11.5465 H       
  74 H74           -7.7914    -7.1917    12.3725 H       
  75 H75           -6.5994    -8.6472    10.7838 H       
  76 H76           -6.7011    -8.1774     8.3688 H       
@<TRIPOS>BOND
   1    1    2 ar
   2    1    3 ar
   3    1   11 1
   4    2    8 1
   5    2    6 ar
   6    3    4 ar
   7    3    7 1
   8    4    5 ar
   9    4   45 1
  10    5    6 ar
  11    5   46 1
  12    6   47 1
  13    7   48 1
  14    7   49 1
  15    7   50 1
  16    8    9 2
  17    9   10 1
  18    9   18 1
  19   10   11 am
  20   10   12 1
  21   11   22 2
  22   12   13 ar
  23   12   14 ar
  24   13   17 ar
  25   13   51 1
  26   14   15 ar
  27   14   52 1
  28   15   16 ar
  29   15   53 1
  30   16   17 ar
  31   16   54 1
  32   17   55 1
  33   18   19 1
  34   18   30 1
  35   18   56 1
  36   19   20 1
  37   19   57 1
  38   20   21 ar
  39   20   23 ar
  40   21   26 ar
  41   23   24 ar
  42   23   27 1
  43   24   25 ar
  44   24   29 1
  45   25   26 ar
  46   26   58 1
  47   27   28 2
  48   28   29 1
  49   28   59 1
  50   29   60 1
  51   30   31 1
  52   30   61 1
  53   30   62 1
  54   31   32 1
  55   31   63 1
  56   31   64 1
  57   32   33 1
  58   32   65 1
  59   32   66 1
  60   33   34 1
  61   33   67 1
  62   33   68 1
  63   34   35 am
  64   34   69 1
  65   35   36 1
  66   35   37 2
  67   36   38 1
  68   38   39 1
  69   38   70 1
  70   38   71 1
  71   39   40 ar
  72   39   44 ar
  73   40   41 ar
  74   40   72 1
  75   41   42 ar
  76   41   73 1
  77   42   43 ar
  78   42   74 1
  79   43   44 ar
  80   43   75 1
  81   44   76 1

#	End of record

