#	Name: ASD01914857
#	Creating user name:	WinNT
#	Creation time:	15. 06. 2019 20:04

#	Modifying user name:	WinNT
#	Modification time:	15. 06. 2019 20:04

#	Program:	/corina/corina34_cracker 3.40 0067  02.08.2006

@<TRIPOS>MOLECULE
ASD01914857
  29   30    0    0    0
SMALL
NO_CHARGES


@<TRIPOS>ATOM
   1 N1            -0.0169     1.3965     0.0097 N.am    
   2 N2             0.0021    -0.0041     0.0020 N.2     
   3 C3             1.2585    -0.3961    -0.0121 C.2     
   4 C4             2.0714     0.7541    -0.0137 C.2     
   5 C5             1.2605     1.8343    -0.0001 C.2     
   6 S6            -1.3709     2.3499     0.0216 S.o2    
   7 O7            -1.7802     2.4486     1.3788 O.2     
   8 O8            -1.0719     3.4814    -0.7843 O.2     
   9 N9            -2.5645     1.5161    -0.7673 N.am    
  10 C10           -3.4520     0.6230    -0.0183 C.3     
  11 C11           -2.7329     1.6715    -2.2143 C.3     
  12 C12            3.0947    -2.0895     0.0664 C.ar    
  13 C13            1.7345    -1.8019    -0.0242 C.ar    
  14 C14            0.8257    -2.8581    -0.1261 C.ar    
  15 C15            1.3201    -4.1514    -0.1326 C.ar    
  16 C16            2.6846    -4.3544    -0.0389 C.ar    
  17 N17            3.5184    -3.3366     0.0562 N.ar    
  18 H18            3.1513     0.7696    -0.0236 H       
  19 H19            1.5779     2.8666     0.0017 H       
  20 H20           -4.3222     1.1813     0.3269 H       
  21 H21           -3.7765    -0.1925    -0.6646 H       
  22 H22           -2.9176     0.2158     0.8400 H       
  23 H23           -1.8182     1.3650    -2.7216 H       
  24 H24           -3.5618     1.0497    -2.5524 H       
  25 H25           -2.9442     2.7156    -2.4454 H       
  26 H26            3.8085    -1.2824     0.1412 H       
  27 H27           -0.2355    -2.6706    -0.1976 H       
  28 H28            0.6472    -4.9926    -0.2097 H       
  29 H29            3.0737    -5.3618    -0.0434 H       
@<TRIPOS>BOND
   1    1    2 1
   2    1    5 1
   3    1    6 am
   4    2    3 2
   5    3    4 1
   6    3   13 1
   7    4    5 2
   8    4   18 1
   9    5   19 1
  10    6    7 2
  11    6    8 2
  12    6    9 am
  13    9   10 1
  14    9   11 1
  15   10   20 1
  16   10   21 1
  17   10   22 1
  18   11   23 1
  19   11   24 1
  20   11   25 1
  21   12   13 ar
  22   12   17 ar
  23   12   26 1
  24   13   14 ar
  25   14   15 ar
  26   14   27 1
  27   15   16 ar
  28   15   28 1
  29   16   17 ar
  30   16   29 1

#	End of record

