#	Name: ASD01903181
#	Creating user name:	WinNT
#	Creation time:	15. 06. 2019 19:54

#	Modifying user name:	WinNT
#	Modification time:	15. 06. 2019 19:54

#	Program:	/corina/corina34_cracker 3.40 0067  02.08.2006

@<TRIPOS>MOLECULE
ASD01903181
  38   40    0    0    0
SMALL
NO_CHARGES


@<TRIPOS>ATOM
   1 S1            -0.2797     1.1580    -0.5319 S.3     
   2 C2            -0.0378    -0.5807    -0.3902 C.2     
   3 N3             1.2307    -0.8303    -0.2762 N.2     
   4 C4             2.0513     0.2106    -0.2876 C.2     
   5 C5             1.4606     1.4096    -0.4175 C.2     
   6 N6            -1.0454    -1.5341    -0.3985 N.pl3   
   7 C7            -2.3789    -1.1370    -0.4021 C.ar    
   8 N8            -2.6813     0.1474    -0.2926 N.ar    
   9 C9            -3.9327     0.5661    -0.2921 C.ar    
  10 C10           -4.9783    -0.3279    -0.4068 C.ar    
  11 C11           -4.7039    -1.6842    -0.5238 C.ar    
  12 C12           -3.3824    -2.0925    -0.5265 C.ar    
  13 C13            3.5242     0.0609    -0.1647 C.2     
  14 C14            4.4769     1.0920    -0.2735 C.2     
  15 N15            5.6631     0.5690    -0.1064 N.2     
  16 N16            5.5157    -0.8059     0.1139 N.pl3   
  17 C17            4.1984    -1.0989     0.0800 C.2     
  18 C18            3.5847    -2.4621     0.2698 C.3     
  19 C19            3.0576    -2.5894     1.7005 C.3     
  20 C20            2.3183    -3.9200     1.8552 C.3     
  21 C21            4.2300    -2.5402     2.6822 C.3     
  22 H22            1.9654     2.3639    -0.4475 H       
  23 H23           -0.8203    -2.4776    -0.4017 H       
  24 H24           -4.1416     1.6217    -0.2006 H       
  25 H25           -5.9994     0.0239    -0.4052 H       
  26 H26           -5.5043    -2.4037    -0.6149 H       
  27 H27           -3.1332    -3.1395    -0.6158 H       
  28 H28            4.2645     2.1339    -0.4625 H       
  29 H29            6.2354    -1.4378     0.2676 H       
  30 H30            2.7619    -2.5913    -0.4334 H       
  31 H31            4.3391    -3.2283     0.0910 H       
  32 H32            2.3734    -1.7671     1.9101 H       
  33 H33            3.0024    -4.7422     1.6455 H       
  34 H34            1.9428    -4.0106     2.8744 H       
  35 H35            1.4830    -3.9550     1.1558 H       
  36 H36            4.8046    -1.6289     2.5166 H       
  37 H37            3.8494    -2.5492     3.7035 H       
  38 H38            4.8714    -3.4076     2.5259 H       
@<TRIPOS>BOND
   1    1    2 1
   2    1    5 1
   3    2    3 2
   4    2    6 1
   5    3    4 1
   6    4    5 2
   7    4   13 1
   8    5   22 1
   9    6    7 1
  10    6   23 1
  11    7    8 ar
  12    7   12 ar
  13    8    9 ar
  14    9   10 ar
  15    9   24 1
  16   10   11 ar
  17   10   25 1
  18   11   12 ar
  19   11   26 1
  20   12   27 1
  21   13   14 1
  22   13   17 2
  23   14   15 2
  24   14   28 1
  25   15   16 1
  26   16   17 1
  27   16   29 1
  28   17   18 1
  29   18   19 1
  30   18   30 1
  31   18   31 1
  32   19   20 1
  33   19   21 1
  34   19   32 1
  35   20   33 1
  36   20   34 1
  37   20   35 1
  38   21   36 1
  39   21   37 1
  40   21   38 1

#	End of record

