#	Name: ASD01870628
#	Creating user name:	WinNT
#	Creation time:	15. 06. 2019 19:39

#	Modifying user name:	WinNT
#	Modification time:	15. 06. 2019 19:39

#	Program:	/corina/corina34_cracker 3.40 0067  02.08.2006

@<TRIPOS>MOLECULE
ASD01870628
  39   42    0    0    0
SMALL
NO_CHARGES


@<TRIPOS>ATOM
   1 C1            -0.0153     1.3808    -0.0086 C.ar    
   2 C2             0.0038    -0.0052    -0.0226 C.ar    
   3 C3             1.2047    -0.6893    -0.0437 C.ar    
   4 C4             2.4067     0.0011    -0.0507 C.ar    
   5 C5             2.4032     1.3866    -0.0369 C.ar    
   6 C6             1.1784     2.0843    -0.0158 C.ar    
   7 C7             3.4583     2.4218    -0.0380 C.2     
   8 N8             2.8713     3.6321    -0.0188 N.am    
   9 C9             1.5309     3.5197    -0.0053 C.2     
  10 C10            3.5660     4.8514    -0.0136 C.ar    
  11 C11            4.9523     4.8693    -0.0287 C.ar    
  12 N12            5.6123     6.0115    -0.0244 N.ar    
  13 C13            4.9855     7.1768    -0.0057 C.ar    
  14 C14            3.5962     7.2365     0.0107 C.ar    
  15 C15            2.8708     6.0593     0.0010 C.ar    
  16 O16            0.7423     4.4432     0.0128 O.2     
  17 O17            4.6548     2.2144    -0.0536 O.2     
  18 N18            5.7263     8.3580    -0.0019 N.am    
  19 C19            7.0702     8.3103     0.0876 C.2     
  20 C20            7.8564     9.5428    -0.0224 C.2     
  21 O21            7.6312     7.2440     0.2596 O.2     
  22 C22            9.2171     9.6360     0.0499 C.2     
  23 C23            9.5374    10.9936    -0.1059 C.2     
  24 C24            8.3732    11.6613    -0.2645 C.2     
  25 O25            7.3630    10.7831    -0.2186 O.3     
  26 C26           10.1866     8.5011     0.2573 C.3     
  27 H27           -0.9566     1.9101     0.0034 H       
  28 H28           -0.9262    -0.5544    -0.0166 H       
  29 H29            1.2065    -1.7693    -0.0544 H       
  30 H30            3.3420    -0.5387    -0.0665 H       
  31 H31            5.4981     3.9375    -0.0438 H       
  32 H32            3.0901     8.1905     0.0267 H       
  33 H33            1.7910     6.0754     0.0088 H       
  34 H34            5.2744     9.2141    -0.0636 H       
  35 H35           10.5280    11.4238    -0.0998 H       
  36 H36            8.2740    12.7270    -0.4085 H       
  37 H37           10.4835     8.0955    -0.7099 H       
  38 H38           11.0680     8.8678     0.7835 H       
  39 H39            9.7097     7.7192     0.8483 H       
@<TRIPOS>BOND
   1    1    2 ar
   2    1    6 ar
   3    1   27 1
   4    2    3 ar
   5    2   28 1
   6    3    4 ar
   7    3   29 1
   8    4    5 ar
   9    4   30 1
  10    5    7 1
  11    5    6 ar
  12    6    9 1
  13    7    8 am
  14    7   17 2
  15    8    9 am
  16    8   10 1
  17    9   16 2
  18   10   11 ar
  19   10   15 ar
  20   11   12 ar
  21   11   31 1
  22   12   13 ar
  23   13   14 ar
  24   13   18 1
  25   14   15 ar
  26   14   32 1
  27   15   33 1
  28   18   19 am
  29   18   34 1
  30   19   20 1
  31   19   21 2
  32   20   22 2
  33   20   25 1
  34   22   23 1
  35   22   26 1
  36   23   24 2
  37   23   35 1
  38   24   25 1
  39   24   36 1
  40   26   37 1
  41   26   38 1
  42   26   39 1

#	End of record

