#	Name: ASD05430021
#	Creating user name:	WinNT
#	Creation time:	15. 06. 2019 20:59

#	Modifying user name:	WinNT
#	Modification time:	15. 06. 2019 20:59

#	Program:	/corina/corina34_cracker 3.40 0067  02.08.2006

@<TRIPOS>MOLECULE
ASD05430021
  62   67    0    0    0
SMALL
NO_CHARGES


@<TRIPOS>ATOM
   1 C1             0.0552     1.1855     0.3896 C.ar    
   2 C2             0.0200    -0.0134    -0.3217 C.ar    
   3 C3             1.1706    -0.4972    -0.9312 C.ar    
   4 C4             2.3522     0.2049    -0.8355 C.ar    
   5 C5             2.3950     1.4081    -0.1237 C.ar    
   6 C6             1.2368     1.8953     0.4894 C.ar    
   7 C7             4.8645    -0.0034     0.2167 C.3     
   8 C8             4.8270     1.5012     0.0670 C.2     
   9 C9             3.6566     2.1597    -0.0203 C.2     
  10 C10            6.2057    -0.4389     0.7973 C.3     
  11 C11            6.8739     0.6001     1.6961 C.3     
  12 N12            7.0923     1.8232     0.9232 N.pl3   
  13 C13            6.1099     2.2247     0.0201 C.2     
  14 N14           -1.1789    -0.7321    -0.4215 N.pl3   
  15 C15           -2.0018    -1.0761     0.6030 C.2     
  16 C16           -1.7459    -1.2156    -1.5722 C.2     
  17 C17           -2.8845    -1.8392    -1.2140 C.2     
  18 N18           -3.0159    -1.7389     0.1171 N.2     
  19 C19           -3.8470    -2.5267    -2.1477 C.3     
  20 C20           -0.9653     2.8929     1.6926 C.3     
  21 O21           -1.0741     1.6589     0.9802 O.3     
  22 C22            6.1762    -1.8462     1.4149 C.3     
  23 O23            7.4356    -2.0431     0.7400 O.3     
  24 C24            7.1595    -1.0333    -0.2521 C.3     
  25 C25            8.2951     2.6402     1.0773 C.3     
  26 C26            8.6886     3.1826    -0.3014 C.3     
  27 O27            7.5772     3.8381    -0.9036 O.3     
  28 N28            6.3358     3.1763    -0.8253 N.2     
  29 C29            8.0135     3.7874     2.0130 C.ar    
  30 C30            8.9655     4.1738     2.9380 C.ar    
  31 C31            8.7085     5.2260     3.7964 C.ar    
  32 C32            7.4971     5.8932     3.7296 C.ar    
  33 C33            6.5444     5.5053     2.8028 C.ar    
  34 C34            6.8057     4.4562     1.9419 C.ar    
  35 F35            7.2446     6.9217     4.5685 F       
  36 H36            1.1390    -1.4262    -1.4811 H       
  37 H37            3.2455    -0.1740    -1.3098 H       
  38 H38            1.2655     2.8242     1.0397 H       
  39 H39            4.0622    -0.3205     0.8829 H       
  40 H40            4.7256    -0.4673    -0.7598 H       
  41 H41            3.6429     3.2396    -0.0145 H       
  42 H42            6.2280     0.8164     2.5471 H       
  43 H43            7.8306     0.2159     2.0497 H       
  44 H44           -1.8433    -0.8410     1.6451 H       
  45 H45           -1.3548    -1.1152    -2.5739 H       
  46 H46           -3.5611    -3.5727    -2.2586 H       
  47 H47           -4.8555    -2.4672    -1.7384 H       
  48 H48           -3.8206    -2.0376    -3.1214 H       
  49 H49           -0.2374     2.7852     2.4967 H       
  50 H50           -0.6399     3.6786     1.0108 H       
  51 H51           -1.9356     3.1561     2.1137 H       
  52 H52            6.2524    -1.8526     2.5022 H       
  53 H53            5.3705    -2.4765     1.0383 H       
  54 H54            6.6560    -1.4139    -1.1408 H       
  55 H55            8.0135    -0.3966    -0.4832 H       
  56 H56            9.1051     2.0298     1.4768 H       
  57 H57            9.5096     3.8910    -0.1904 H       
  58 H58            9.0092     2.3570    -0.9367 H       
  59 H59            9.9102     3.6530     2.9902 H       
  60 H60            9.4522     5.5275     4.5192 H       
  61 H61            5.5992     6.0250     2.7498 H       
  62 H62            6.0628     4.1534     1.2189 H       
@<TRIPOS>BOND
   1    1    2 ar
   2    1    6 ar
   3    1   21 1
   4    2    3 ar
   5    2   14 1
   6    3    4 ar
   7    3   36 1
   8    4    5 ar
   9    4   37 1
  10    5    6 ar
  11    5    9 1
  12    6   38 1
  13    7    8 1
  14    7   10 1
  15    7   39 1
  16    7   40 1
  17    8    9 2
  18    8   13 1
  19    9   41 1
  20   10   11 1
  21   10   22 1
  22   10   24 1
  23   11   12 1
  24   11   42 1
  25   11   43 1
  26   12   13 1
  27   12   25 1
  28   13   28 2
  29   14   15 1
  30   14   16 1
  31   15   18 2
  32   15   44 1
  33   16   17 2
  34   16   45 1
  35   17   18 1
  36   17   19 1
  37   19   46 1
  38   19   47 1
  39   19   48 1
  40   20   21 1
  41   20   49 1
  42   20   50 1
  43   20   51 1
  44   22   23 1
  45   22   52 1
  46   22   53 1
  47   23   24 1
  48   24   54 1
  49   24   55 1
  50   25   26 1
  51   25   29 1
  52   25   56 1
  53   26   27 1
  54   26   57 1
  55   26   58 1
  56   27   28 1
  57   29   30 ar
  58   29   34 ar
  59   30   31 ar
  60   30   59 1
  61   31   32 ar
  62   31   60 1
  63   32   33 ar
  64   32   35 1
  65   33   34 ar
  66   33   61 1
  67   34   62 1

#	End of record

