#	Name: ASD09530040
#	Creating user name:	WinNT
#	Creation time:	15. 06. 2019 21:22

#	Modifying user name:	WinNT
#	Modification time:	15. 06. 2019 21:22

#	Program:	/corina/corina34_cracker 3.40 0067  02.08.2006

@<TRIPOS>MOLECULE
ASD09530040
  54   57    0    0    0
SMALL
NO_CHARGES


@<TRIPOS>ATOM
   1 C1            -0.0168     1.3846     0.0097 C.ar    
   2 C2             0.0021    -0.0041     0.0020 C.ar    
   3 C3             1.2158    -0.6790    -0.0132 C.ar    
   4 C4             2.3996     0.0321    -0.0207 C.ar    
   5 C5             2.3774     1.4148    -0.0126 C.ar    
   6 C6             1.1706     2.0899     0.0021 C.ar    
   7 C7             3.6712     2.1876    -0.0198 C.3     
   8 C8             4.0897     2.4533    -1.4429 C.2     
   9 N9             5.2251     3.1342    -1.6955 N.am    
  10 O10            3.4048     2.0544    -2.3609 O.2     
  11 C11            5.6319     3.3925    -3.0790 C.3     
  12 C12            6.5096     4.6166    -3.1243 C.ar    
  13 N13            7.1880     4.9706    -2.0505 N.ar    
  14 C14            7.9686     6.0330    -2.0413 C.ar    
  15 C15            8.1034     6.8222    -3.1740 C.ar    
  16 C16            7.4017     6.4776    -4.3250 C.ar    
  17 C17            6.5971     5.3503    -4.2928 C.ar    
  18 O18            8.9090     7.9167    -3.1596 O.3     
  19 C19            9.5941     8.2020    -1.9385 C.3     
  20 C20           10.4459     9.4608    -2.1136 C.3     
  21 C21            6.4082     2.1882    -3.6156 C.3     
  22 F22            9.6204    10.5396    -2.4482 F       
  23 F23           11.1166     9.7401    -0.9180 F       
  24 F24           11.3795     9.2538    -3.1347 F       
  25 N25           -1.1999    -0.7220     0.0101 N.pl3   
  26 N26           -2.3689    -0.3406     0.6767 N.2     
  27 C27           -3.3041    -1.2268     0.4831 C.2     
  28 C28           -2.7532    -2.2801    -0.3639 C.ar    
  29 C29           -1.4224    -1.9107    -0.6398 C.ar    
  30 C30           -3.2668    -3.4672    -0.8976 C.ar    
  31 C31           -2.4708    -4.2575    -1.6752 C.ar    
  32 C32           -1.1562    -3.8943    -1.9410 C.ar    
  33 C33           -0.6347    -2.7361    -1.4375 C.ar    
  34 H34           -0.9590     1.9124     0.0170 H       
  35 H35            1.2338    -1.7589    -0.0188 H       
  36 H36            3.3438    -0.4922    -0.0325 H       
  37 H37            1.1567     3.1698     0.0084 H       
  38 H38            3.5314     3.1350     0.5007 H       
  39 H39            4.4441     1.6069     0.4838 H       
  40 H40            5.7728     3.4532    -0.9613 H       
  41 H41            4.7467     3.5572    -3.6933 H       
  42 H42            8.5085     6.2917    -1.1424 H       
  43 H43            7.4857     7.0719    -5.2229 H       
  44 H44            6.0381     5.0529    -5.1678 H       
  45 H45            8.8667     8.3633    -1.1429 H       
  46 H46           10.2373     7.3615    -1.6778 H       
  47 H47            5.7733     1.3028    -3.5829 H       
  48 H48            6.7109     2.3804    -4.6449 H       
  49 H49            7.2934     2.0235    -3.0013 H       
  50 H50           -4.3081    -1.1890     0.8793 H       
  51 H51           -4.2874    -3.7567    -0.6950 H       
  52 H52           -2.8664    -5.1740    -2.0876 H       
  53 H53           -0.5410    -4.5323    -2.5582 H       
  54 H54            0.3886    -2.4654    -1.6516 H       
@<TRIPOS>BOND
   1    1    2 ar
   2    1    6 ar
   3    1   34 1
   4    2    3 ar
   5    2   25 1
   6    3    4 ar
   7    3   35 1
   8    4    5 ar
   9    4   36 1
  10    5    6 ar
  11    5    7 1
  12    6   37 1
  13    7    8 1
  14    7   38 1
  15    7   39 1
  16    8    9 am
  17    8   10 2
  18    9   11 1
  19    9   40 1
  20   11   12 1
  21   11   21 1
  22   11   41 1
  23   12   13 ar
  24   12   17 ar
  25   13   14 ar
  26   14   15 ar
  27   14   42 1
  28   15   16 ar
  29   15   18 1
  30   16   17 ar
  31   16   43 1
  32   17   44 1
  33   18   19 1
  34   19   20 1
  35   19   45 1
  36   19   46 1
  37   20   22 1
  38   20   23 1
  39   20   24 1
  40   21   47 1
  41   21   48 1
  42   21   49 1
  43   25   26 1
  44   25   29 1
  45   26   27 2
  46   27   28 1
  47   27   50 1
  48   28   29 ar
  49   28   30 ar
  50   29   33 ar
  51   30   31 ar
  52   30   51 1
  53   31   32 ar
  54   31   52 1
  55   32   33 ar
  56   32   53 1
  57   33   54 1

#	End of record

