#	Name: ASD01900631
#	Creating user name:	WinNT
#	Creation time:	15. 06. 2019 19:52

#	Modifying user name:	WinNT
#	Modification time:	15. 06. 2019 19:52

#	Program:	/corina/corina34_cracker 3.40 0067  02.08.2006

@<TRIPOS>MOLECULE
ASD01900631
  34   37    0    0    0
SMALL
NO_CHARGES


@<TRIPOS>ATOM
   1 C1            -0.0167     1.3807     0.0096 C.ar    
   2 C2             0.0021    -0.0041     0.0020 C.ar    
   3 C3             1.1985    -0.6925    -0.0147 C.ar    
   4 C4             2.3999     0.0037    -0.0247 C.ar    
   5 C5             2.3760     1.4050    -0.0131 C.ar    
   6 O6             3.5769    -0.6572    -0.0529 O.3     
   7 C7             4.7390    -0.0446     0.2318 C.2     
   8 C8             4.8689     1.3028     0.2643 C.2     
   9 C9             3.6750     2.1247    -0.0105 C.2     
  10 N10            3.7559     3.4131    -0.2376 N.2     
  11 C11            5.9240    -0.8762     0.5217 C.ar    
  12 N12            7.0863    -0.2818     0.8064 N.ar    
  13 C13            8.1771    -0.9552     1.0738 C.ar    
  14 C14            8.1608    -2.3613     1.0695 C.ar    
  15 C15            6.9445    -3.0319     0.7717 C.ar    
  16 C16            5.8058    -2.2572     0.4985 C.ar    
  17 C17            9.3096    -3.1153     1.3501 C.ar    
  18 C18            9.2413    -4.4781     1.3327 C.ar    
  19 C19            8.0453    -5.1353     1.0399 C.ar    
  20 C20            6.9106    -4.4351     0.7632 C.ar    
  21 O21            5.0171     4.0567    -0.2236 O.3     
  22 C22            1.1683     2.0900     0.0021 C.ar    
  23 F23           10.3491    -5.2027     1.6028 F       
  24 H24           -0.9598     1.9069     0.0169 H       
  25 H25           -0.9291    -0.5511     0.0096 H       
  26 H26            1.2000    -1.7725    -0.0196 H       
  27 H27            5.8206     1.7632     0.4850 H       
  28 H28            9.0930    -0.4285     1.2981 H       
  29 H29            4.8611    -2.7267     0.2673 H       
  30 H30           10.2422    -2.6206     1.5780 H       
  31 H31            8.0193    -6.2150     1.0327 H       
  32 H32            5.9914    -4.9556     0.5382 H       
  33 H33            4.9760     5.0064    -0.4015 H       
  34 H34            1.1557     3.1699     0.0074 H       
@<TRIPOS>BOND
   1    1    2 ar
   2    1   22 ar
   3    1   24 1
   4    2    3 ar
   5    2   25 1
   6    3    4 ar
   7    3   26 1
   8    4    5 ar
   9    4    6 1
  10    5   22 ar
  11    5    9 1
  12    6    7 1
  13    7    8 2
  14    7   11 1
  15    8    9 1
  16    8   27 1
  17    9   10 2
  18   10   21 1
  19   11   12 ar
  20   11   16 ar
  21   12   13 ar
  22   13   14 ar
  23   13   28 1
  24   14   15 ar
  25   14   17 ar
  26   15   16 ar
  27   15   20 ar
  28   16   29 1
  29   17   18 ar
  30   17   30 1
  31   18   19 ar
  32   18   23 1
  33   19   20 ar
  34   19   31 1
  35   20   32 1
  36   21   33 1
  37   22   34 1

#	End of record

