#	Name: ASD01810960
#	Creating user name:	WinNT
#	Creation time:	15. 06. 2019 19:25

#	Modifying user name:	WinNT
#	Modification time:	15. 06. 2019 19:25

#	Program:	/corina/corina34_cracker 3.40 0067  02.08.2006

@<TRIPOS>MOLECULE
ASD01810960
  66   70    0    0    0
SMALL
NO_CHARGES


@<TRIPOS>ATOM
   1 C1            -7.3214     2.2133    -4.0019 C.1     
   2 C2            -6.3439     3.0075    -3.3204 C.ar    
   3 C3            -5.1730     2.4182    -2.8394 C.ar    
   4 C4            -4.2356     3.1893    -2.1838 C.ar    
   5 C5            -4.4538     4.5434    -2.0021 C.ar    
   6 C6            -5.6120     5.1338    -2.4758 C.ar    
   7 C7            -6.5547     4.3759    -3.1391 C.ar    
   8 N8            -8.0968     1.5832    -4.5424 N.1     
   9 N9            -2.4098     7.7982    -0.2276 N.am    
  10 C10           -1.8545     7.3097    -1.4972 C.3     
  11 C11           -2.9246     6.4838    -2.2180 C.3     
  12 C12           -3.4254     5.3792    -1.2846 C.3     
  13 C13           -4.0572     6.0078    -0.0405 C.3     
  14 C14           -3.0000     6.8284     0.7050 C.3     
  15 C15           -2.3735     9.1104     0.0781 C.2     
  16 C16           -3.0190     9.5994     1.3152 C.ar    
  17 C17           -3.9802    10.6109     1.2505 C.ar    
  18 C18           -4.5837    11.0684     2.4047 C.ar    
  19 C19           -4.2420    10.5301     3.6299 C.ar    
  20 C20           -3.2833     9.5185     3.7086 C.ar    
  21 C21           -2.6742     9.0484     2.5475 C.ar    
  22 O22           -1.8100     9.8917    -0.6632 O.2     
  23 N23           -2.8680     8.5809     7.1164 N.2     
  24 N24           -3.4133     9.2864     6.1905 N.2     
  25 C25           -2.9184     8.9436     5.0222 C.2     
  26 N26           -2.0014     7.9538     5.2513 N.pl3   
  27 C27           -2.0007     7.7538     6.5973 C.2     
  28 O28            0.4381     5.0834     6.6999 O.3     
  29 C29           -0.9232     5.4863     6.5095 C.3     
  30 C30           -1.1548     6.7599     7.3507 C.3     
  31 C31            0.2902     7.2962     7.5414 C.3     
  32 C32            1.0875     5.9702     7.6247 C.3     
  33 C33           -4.9054    11.0365     4.8848 C.3     
  34 C34           -4.3588    11.2043    -0.0820 C.3     
  35 C35           -5.3451    10.2751    -0.7924 C.3     
  36 H36           -5.0018     1.3612    -2.9799 H       
  37 H37           -3.3295     2.7348    -1.8112 H       
  38 H38           -5.7762     6.1912    -2.3303 H       
  39 H39           -7.4562     4.8388    -3.5126 H       
  40 H40           -1.5658     8.1566    -2.1196 H       
  41 H41           -0.9833     6.6855    -1.2988 H       
  42 H42           -3.7570     7.1301    -2.4961 H       
  43 H43           -2.4958     6.0359    -3.1144 H       
  44 H44           -2.5880     4.7480    -0.9869 H       
  45 H45           -4.8789     6.6587    -0.3391 H       
  46 H46           -4.4345     5.2212     0.6129 H       
  47 H47           -2.2221     6.1649     1.0830 H       
  48 H48           -3.4670     7.3577     1.5356 H       
  49 H49           -5.3260    11.8509     2.3494 H       
  50 H50           -1.9347     8.2633     2.6027 H       
  51 H51           -1.4630     7.4905     4.5906 H       
  52 H52           -1.1012     5.7016     5.4559 H       
  53 H53           -1.5934     4.6947     6.8447 H       
  54 H54           -1.6102     6.5137     8.3099 H       
  55 H55            0.6050     7.8906     6.6837 H       
  56 H56            0.3787     7.8665     8.4661 H       
  57 H57            1.0409     5.5636     8.6349 H       
  58 H58            2.1239     6.1327     7.3288 H       
  59 H59           -5.8035    10.4514     5.0825 H       
  60 H60           -4.2167    10.9399     5.7241 H       
  61 H61           -5.1757    12.0845     4.7553 H       
  62 H62           -4.8239    12.1779     0.0728 H       
  63 H63           -3.4649    11.3220    -0.6945 H       
  64 H64           -6.2390    10.1574    -0.1799 H       
  65 H65           -5.6189    10.7043    -1.7562 H       
  66 H66           -4.8800     9.3015    -0.9472 H       
@<TRIPOS>BOND
   1    1    2 1
   2    1    8 3
   3    2    3 ar
   4    2    7 ar
   5    3    4 ar
   6    3   36 1
   7    4    5 ar
   8    4   37 1
   9    5    6 ar
  10    5   12 1
  11    6    7 ar
  12    6   38 1
  13    7   39 1
  14    9   10 1
  15    9   14 1
  16    9   15 am
  17   10   11 1
  18   10   40 1
  19   10   41 1
  20   11   12 1
  21   11   42 1
  22   11   43 1
  23   12   13 1
  24   12   44 1
  25   13   14 1
  26   13   45 1
  27   13   46 1
  28   14   47 1
  29   14   48 1
  30   15   16 1
  31   15   22 2
  32   16   17 ar
  33   16   21 ar
  34   17   18 ar
  35   17   34 1
  36   18   19 ar
  37   18   49 1
  38   19   20 ar
  39   19   33 1
  40   20   21 ar
  41   20   25 1
  42   21   50 1
  43   23   24 1
  44   23   27 2
  45   24   25 2
  46   25   26 1
  47   26   27 1
  48   26   51 1
  49   27   30 1
  50   28   29 1
  51   28   32 1
  52   29   30 1
  53   29   52 1
  54   29   53 1
  55   30   31 1
  56   30   54 1
  57   31   32 1
  58   31   55 1
  59   31   56 1
  60   32   57 1
  61   32   58 1
  62   33   59 1
  63   33   60 1
  64   33   61 1
  65   34   35 1
  66   34   62 1
  67   34   63 1
  68   35   64 1
  69   35   65 1
  70   35   66 1

#	End of record

