#	Name: ASD02030208
#	Creating user name:	WinNT
#	Creation time:	15. 06. 2019 20:14

#	Modifying user name:	WinNT
#	Modification time:	15. 06. 2019 20:14

#	Program:	/corina/corina34_cracker 3.40 0067  02.08.2006

@<TRIPOS>MOLECULE
ASD02030208
  63   68    0    0    0
SMALL
NO_CHARGES


@<TRIPOS>ATOM
   1 N1            -0.0117     1.6735    -0.8421 N.am    
   2 C2             0.1067     0.2123    -0.7380 C.3     
   3 C3            -0.6179    -0.2489     0.5326 C.3     
   4 N4            -1.9569     0.3567     0.5556 N.am    
   5 C5            -2.0753     1.8178     0.4516 C.3     
   6 C6            -1.3504     2.2794    -0.8134 C.3     
   7 C7             1.0879     2.4444    -0.9561 C.2     
   8 C8             2.4323     1.8377    -0.8381 C.2     
   9 N9             2.7172     0.5288    -0.7546 N.2     
  10 N10            3.5864     2.4779    -0.8000 N.2     
  11 N11            4.5216     1.5975    -0.6937 N.pl3   
  12 N12            3.9995     0.4213    -0.6661 N.2     
  13 O13            0.9752     3.6380    -1.1559 O.2     
  14 C14           -3.0565    -0.4143     0.6697 C.2     
  15 C15           -2.9293    -1.8881     0.6745 C.ar    
  16 O16           -4.1526     0.1014     0.7686 O.2     
  17 C17           -1.2253     3.8043    -0.8061 C.3     
  18 C18           -2.1354     1.8310    -2.0477 C.3     
  19 N19           -1.7809    -2.4434     1.0703 N.ar    
  20 C20           -1.5958    -3.7387     1.1007 C.ar    
  21 C21           -2.6272    -4.6111     0.7069 C.ar    
  22 C22           -3.8640    -4.0603     0.2795 C.ar    
  23 C23           -4.0049    -2.6619     0.2742 C.ar    
  24 C24           -0.2734    -4.2977     1.5586 C.3     
  25 C25            0.9740    -3.8993     0.7674 C.3     
  26 C26            0.7358    -3.3195     2.1631 C.3     
  27 C27            5.8935     1.8771    -0.6232 C.ar    
  28 C28            6.8098     0.8401    -0.5096 C.ar    
  29 C29            8.1608     1.1186    -0.4408 C.ar    
  30 C30            8.6013     2.4287    -0.4851 C.ar    
  31 C31            7.6912     3.4636    -0.5982 C.ar    
  32 C32            6.3392     3.1911    -0.6727 C.ar    
  33 C33           -2.4661    -6.0042     0.7250 C.ar    
  34 C34           -3.4964    -6.8055     0.3332 C.ar    
  35 C35           -4.7097    -6.2642    -0.0860 C.ar    
  36 C36           -4.9029    -4.9157    -0.1165 C.ar    
  37 H37           -0.3509    -0.2548    -1.6101 H       
  38 H38            1.1589    -0.0663    -0.6806 H       
  39 H39           -0.7077    -1.3351     0.5287 H       
  40 H40           -0.0566     0.0711     1.4104 H       
  41 H41           -3.1275     2.0964     0.3942 H       
  42 H42           -1.6177     2.2849     1.3237 H       
  43 H43           -0.4355     4.1008    -0.1159 H       
  44 H44           -0.9812     4.1536    -1.8093 H       
  45 H45           -2.1702     4.2448    -0.4878 H       
  46 H46           -3.1334     2.2685    -2.0222 H       
  47 H47           -1.6169     2.1611    -2.9478 H       
  48 H48           -2.2152     0.7439    -2.0523 H       
  49 H49           -4.9286    -2.2011    -0.0435 H       
  50 H50           -0.3068    -5.3060     1.9714 H       
  51 H51            1.7615    -4.6453     0.6600 H       
  52 H52            0.8382    -3.2328    -0.0843 H       
  53 H53            0.4433    -2.2716     2.2296 H       
  54 H54            1.3665    -3.6840     2.9739 H       
  55 H55            6.4664    -0.1833    -0.4746 H       
  56 H56            8.8740     0.3125    -0.3520 H       
  57 H57            9.6582     2.6440    -0.4308 H       
  58 H58            8.0381     4.4858    -0.6322 H       
  59 H59            5.6288     3.9998    -0.7614 H       
  60 H60           -1.5314    -6.4390     1.0470 H       
  61 H61           -3.3700    -7.8780     0.3475 H       
  62 H62           -5.5090    -6.9232    -0.3914 H       
  63 H63           -5.8483    -4.5086    -0.4432 H       
@<TRIPOS>BOND
   1    1    2 1
   2    1    7 am
   3    1    6 1
   4    2    3 1
   5    2   37 1
   6    2   38 1
   7    3    4 1
   8    3   39 1
   9    3   40 1
  10    4    5 1
  11    4   14 am
  12    5    6 1
  13    5   41 1
  14    5   42 1
  15    6   17 1
  16    6   18 1
  17    7    8 1
  18    7   13 2
  19    8    9 1
  20    8   10 2
  21    9   12 2
  22   10   11 1
  23   11   12 1
  24   11   27 1
  25   14   15 1
  26   14   16 2
  27   15   19 ar
  28   15   23 ar
  29   17   43 1
  30   17   44 1
  31   17   45 1
  32   18   46 1
  33   18   47 1
  34   18   48 1
  35   19   20 ar
  36   20   21 ar
  37   20   24 1
  38   21   22 ar
  39   21   33 ar
  40   22   23 ar
  41   22   36 ar
  42   23   49 1
  43   24   25 1
  44   24   26 1
  45   24   50 1
  46   25   26 1
  47   25   51 1
  48   25   52 1
  49   26   53 1
  50   26   54 1
  51   27   28 ar
  52   27   32 ar
  53   28   29 ar
  54   28   55 1
  55   29   30 ar
  56   29   56 1
  57   30   31 ar
  58   30   57 1
  59   31   32 ar
  60   31   58 1
  61   32   59 1
  62   33   34 ar
  63   33   60 1
  64   34   35 ar
  65   34   61 1
  66   35   36 ar
  67   35   62 1
  68   36   63 1

#	End of record

