#	Name: ASD01811264
#	Creating user name:	WinNT
#	Creation time:	15. 06. 2019 19:26

#	Modifying user name:	WinNT
#	Modification time:	15. 06. 2019 19:26

#	Program:	/corina/corina34_cracker 3.40 0067  02.08.2006

@<TRIPOS>MOLECULE
ASD01811264
  64   68    0    0    0
SMALL
NO_CHARGES


@<TRIPOS>ATOM
   1 C1            -0.0575     1.6526    -0.1705 C.ar    
   2 C2            -0.2568     0.2731    -0.0895 C.ar    
   3 C3            -1.6271    -0.2815    -0.1204 C.2     
   4 N4            -2.6167     0.3291     0.5611 N.am    
   5 O5            -1.8611    -1.2880    -0.7604 O.2     
   6 C6            -2.3282     1.4758     1.4331 C.3     
   7 C7             0.8409    -0.5800     0.0202 C.ar    
   8 C8             2.1229    -0.0525     0.0481 C.ar    
   9 C9             2.3105     1.3220    -0.0332 C.ar    
  10 C10            1.2222     2.1677    -0.1419 C.ar    
  11 N11            3.2273    -0.9039     0.1585 N.am    
  12 C12           -2.8956     1.1902     2.8271 C.3     
  13 C13           -4.3829     0.8495     2.7082 C.3     
  14 C14           -4.5532    -0.4066     1.8507 C.3     
  15 C15           -4.0054    -0.1356     0.4413 C.3     
  16 C16           -4.9524     0.6012     4.0812 C.ar    
  17 N17           -4.4548    -0.3686     4.8242 N.ar    
  18 C18           -4.9156    -0.6272     6.0305 C.ar    
  19 C19           -5.9596     0.1275     6.5681 C.ar    
  20 C20           -6.5086     1.1642     5.8027 C.ar    
  21 C21           -5.9847     1.3978     4.5437 C.ar    
  22 C22            3.1330    -2.0402     0.8771 C.2     
  23 C23           -6.4611    -0.1538     7.8795 C.1     
  24 N24           -6.8590    -0.3769     8.9199 N.1     
  25 C25            4.3246    -2.8858     1.0797 C.ar    
  26 O26            2.0657    -2.3683     1.3586 O.2     
  27 C27            5.5546    -2.5186     0.5316 C.ar    
  28 F28           -5.0593     1.9178     2.1095 F       
  29 C29            3.7049     1.8927    -0.0021 C.3     
  30 N30            6.6188    -3.2728     0.7119 N.ar    
  31 C31            6.5639    -4.3971     1.4128 C.ar    
  32 C32            5.3686    -4.8247     1.9886 C.ar    
  33 C33            4.2391    -4.0682     1.8312 C.ar    
  34 N34            7.7099    -5.1573     1.5746 N.3     
  35 C35            8.8585    -4.5340     0.8910 C.3     
  36 C36            9.7149    -4.9075     2.1091 C.3     
  37 C37            8.3741    -4.8464     2.8541 C.3     
  38 H38           -0.9048     2.3163    -0.2600 H       
  39 H39           -1.2501     1.6217     1.5003 H       
  40 H40           -2.7956     2.3720     1.0249 H       
  41 H41            0.6929    -1.6479     0.0836 H       
  42 H42            1.3743     3.2351    -0.2047 H       
  43 H43            4.0609    -0.6765    -0.2822 H       
  44 H44           -2.3639     0.3485     3.2709 H       
  45 H45           -2.7735     2.0713     3.4571 H       
  46 H46           -4.0059    -1.2333     2.3037 H       
  47 H47           -5.6108    -0.6621     1.7858 H       
  48 H48           -4.6113     0.6285    -0.0456 H       
  49 H49           -4.0327    -1.0545    -0.1443 H       
  50 H50           -4.4823    -1.4300     6.6085 H       
  51 H51           -7.3172     1.7682     6.1870 H       
  52 H52           -6.3828     2.1886     3.9253 H       
  53 H53            5.6341    -1.6090    -0.0451 H       
  54 H54            4.0915     1.9629    -1.0189 H       
  55 H55            3.6812     2.8857     0.4469 H       
  56 H56            4.3506     1.2424     0.5880 H       
  57 H57            5.3351    -5.7423     2.5572 H       
  58 H58            3.3013    -4.3784     2.2677 H       
  59 H59            9.1532    -5.0511    -0.0221 H       
  60 H60            8.7489    -3.4587     0.7506 H       
  61 H61           10.1522    -5.9046     2.0583 H       
  62 H62           10.4266    -4.1377     2.4072 H       
  63 H63            8.1352    -3.8544     3.2375 H       
  64 H64            8.2583    -5.6282     3.6047 H       
@<TRIPOS>BOND
   1    1    2 ar
   2    1   10 ar
   3    1   38 1
   4    2    3 1
   5    2    7 ar
   6    3    4 am
   7    3    5 2
   8    4    6 1
   9    4   15 1
  10    6   12 1
  11    6   39 1
  12    6   40 1
  13    7    8 ar
  14    7   41 1
  15    8    9 ar
  16    8   11 1
  17    9   10 ar
  18    9   29 1
  19   10   42 1
  20   11   22 am
  21   11   43 1
  22   12   13 1
  23   12   44 1
  24   12   45 1
  25   13   14 1
  26   13   16 1
  27   13   28 1
  28   14   15 1
  29   14   46 1
  30   14   47 1
  31   15   48 1
  32   15   49 1
  33   16   17 ar
  34   16   21 ar
  35   17   18 ar
  36   18   19 ar
  37   18   50 1
  38   19   20 ar
  39   19   23 1
  40   20   21 ar
  41   20   51 1
  42   21   52 1
  43   22   25 1
  44   22   26 2
  45   23   24 3
  46   25   27 ar
  47   25   33 ar
  48   27   30 ar
  49   27   53 1
  50   29   54 1
  51   29   55 1
  52   29   56 1
  53   30   31 ar
  54   31   32 ar
  55   31   34 1
  56   32   33 ar
  57   32   57 1
  58   33   58 1
  59   34   35 1
  60   34   37 1
  61   35   36 1
  62   35   59 1
  63   35   60 1
  64   36   37 1
  65   36   61 1
  66   36   62 1
  67   37   63 1
  68   37   64 1

#	End of record

