#	Name: ASD07930717
#	Creating user name:	WinNT
#	Creation time:	15. 06. 2019 21:13

#	Modifying user name:	WinNT
#	Modification time:	15. 06. 2019 21:13

#	Program:	/corina/corina34_cracker 3.40 0067  02.08.2006

@<TRIPOS>MOLECULE
ASD07930717
  40   42    0    0    0
SMALL
NO_CHARGES


@<TRIPOS>ATOM
   1 C1            -0.0178     1.4608     0.0101 C.3     
   2 N2             0.8031    -0.4153    -2.1619 N.2     
   3 N3            -0.8796    -1.7833    -1.2911 N.pl3   
   4 C4            -0.9005    -2.8248    -0.2586 C.3     
   5 C5            -1.2102    -2.1834     1.1010 C.3     
   6 S6             0.0275    -0.8859     1.4156 S.o2    
   7 N7             0.0021    -0.0041     0.0020 N.am    
   8 C8             0.0002    -0.7257    -1.1832 C.2     
   9 C9             0.4646    -3.5132    -0.1997 C.3     
  10 O10           -0.4323     0.0192     2.4099 O.2     
  11 O11            1.3354    -1.4387     1.4687 O.2     
  12 C12           -1.9634    -3.8404    -0.5898 C.2     
  13 C13           -2.3333    -4.1293    -1.8872 C.2     
  14 C14           -3.2988    -5.0626    -2.0032 C.2     
  15 S15           -3.7758    -5.6144    -0.4027 S.3     
  16 C16           -2.6131    -4.5315     0.3512 C.2     
  17 C17           -3.8692    -5.5468    -3.2785 C.ar    
  18 C18           -4.8673    -6.5185    -3.2722 C.ar    
  19 C19           -5.3999    -6.9692    -4.4791 C.ar    
  20 C20           -4.9301    -6.4442    -5.6854 C.ar    
  21 C21           -3.9405    -5.4811    -5.6838 C.ar    
  22 C22           -3.4126    -5.0268    -4.4918 C.ar    
  23 C23           -6.4259    -7.9682    -4.4823 C.1     
  24 N24           -7.2398    -8.7607    -4.4849 N.1     
  25 H25            1.0048     1.8381     0.0023 H       
  26 H26           -0.5450     1.8219    -0.8730 H       
  27 H27           -0.5280     1.8123     0.9069 H       
  28 H28            1.4154     0.3313    -2.0687 H       
  29 H29           -1.4804    -1.8399    -2.0505 H       
  30 H30           -2.2071    -1.7432     1.0811 H       
  31 H31           -1.1573    -2.9394     1.8845 H       
  32 H32            1.2322    -2.7780     0.0418 H       
  33 H33            0.4485    -4.2871     0.5677 H       
  34 H34            0.6857    -3.9650    -1.1667 H       
  35 H35           -1.8848    -3.6456    -2.7423 H       
  36 H36           -2.4521    -4.4360     1.4148 H       
  37 H37           -5.2265    -6.9212    -2.3367 H       
  38 H38           -5.3415    -6.7925    -6.6213 H       
  39 H39           -3.5808    -5.0785    -6.6191 H       
  40 H40           -2.6388    -4.2734    -4.4977 H       
@<TRIPOS>BOND
   1    1    7 1
   2    1   25 1
   3    1   26 1
   4    1   27 1
   5    2    8 2
   6    2   28 1
   7    3    4 1
   8    3    8 1
   9    3   29 1
  10    4    5 1
  11    4    9 1
  12    4   12 1
  13    5    6 1
  14    5   30 1
  15    5   31 1
  16    6    7 am
  17    6   10 2
  18    6   11 2
  19    7    8 1
  20    9   32 1
  21    9   33 1
  22    9   34 1
  23   12   13 1
  24   12   16 2
  25   13   14 2
  26   13   35 1
  27   14   15 1
  28   14   17 1
  29   15   16 1
  30   16   36 1
  31   17   18 ar
  32   17   22 ar
  33   18   19 ar
  34   18   37 1
  35   19   20 ar
  36   19   23 1
  37   20   21 ar
  38   20   38 1
  39   21   22 ar
  40   21   39 1
  41   22   40 1
  42   23   24 3

#	End of record

