#	Name: ASD01840024
#	Creating user name:	WinNT
#	Creation time:	15. 06. 2019 19:37

#	Modifying user name:	WinNT
#	Modification time:	15. 06. 2019 19:37

#	Program:	/corina/corina34_cracker 3.40 0067  02.08.2006

@<TRIPOS>MOLECULE
ASD01840024
  37   39    0    0    0
SMALL
NO_CHARGES


@<TRIPOS>ATOM
   1 C1             0.8840     1.7437    -1.7239 C.ar    
   2 C2             1.2477     0.5441    -2.2922 C.ar    
   3 C3             2.4204    -0.0754    -1.8853 C.ar    
   4 N4             3.1886     0.4630    -0.9675 N.ar    
   5 C5             2.8892     1.6249    -0.3795 C.ar    
   6 C6             1.7230     2.3106    -0.7368 C.ar    
   7 S7             3.7620     2.5195     0.8591 S.3     
   8 C8             2.5649     3.7987     0.8895 C.2     
   9 C9             1.5629     3.5501     0.0036 C.2     
  10 C10           -0.3810     2.4430    -2.1502 C.3     
  11 C11            0.3791    -0.0914    -3.3470 C.3     
  12 C12            2.8188    -1.3889    -2.5074 C.3     
  13 N13            0.4852     4.4023    -0.1753 N.pl3   
  14 C14            2.6317     4.9386     1.7242 C.2     
  15 C15            3.8421     5.1905     2.5369 C.ar    
  16 O16            1.6925     5.7130     1.7739 O.2     
  17 C17            5.0867     4.7336     2.1008 C.ar    
  18 C18            6.2114     4.9717     2.8633 C.ar    
  19 C19            6.1075     5.6619     4.0581 C.ar    
  20 C20            4.8766     6.1171     4.4963 C.ar    
  21 C21            3.7450     5.8910     3.7402 C.ar    
  22 H22           -1.1934     2.1657    -1.4784 H       
  23 H23           -0.2303     3.5218    -2.1122 H       
  24 H24           -0.6344     2.1471    -3.1682 H       
  25 H25            0.6885     0.2586    -4.3318 H       
  26 H26            0.4821    -1.1754    -3.2978 H       
  27 H27           -0.6616     0.1829    -3.1744 H       
  28 H28            3.4340    -1.2024    -3.3876 H       
  29 H29            3.3863    -1.9757    -1.7851 H       
  30 H30            1.9241    -1.9388    -2.7994 H       
  31 H31           -0.3449     4.0633    -0.5453 H       
  32 H32            0.5608     5.3378     0.0693 H       
  33 H33            5.1691     4.1945     1.1686 H       
  34 H34            7.1750     4.6184     2.5271 H       
  35 H35            6.9910     5.8457     4.6513 H       
  36 H36            4.8021     6.6548     5.4300 H       
  37 H37            2.7855     6.2510     4.0810 H       
@<TRIPOS>BOND
   1    1    2 ar
   2    1    6 ar
   3    1   10 1
   4    2    3 ar
   5    2   11 1
   6    3    4 ar
   7    3   12 1
   8    4    5 ar
   9    5    7 1
  10    5    6 ar
  11    6    9 1
  12    7    8 1
  13    8    9 2
  14    8   14 1
  15    9   13 1
  16   10   22 1
  17   10   23 1
  18   10   24 1
  19   11   25 1
  20   11   26 1
  21   11   27 1
  22   12   28 1
  23   12   29 1
  24   12   30 1
  25   13   31 1
  26   13   32 1
  27   14   15 1
  28   14   16 2
  29   15   17 ar
  30   15   21 ar
  31   17   18 ar
  32   17   33 1
  33   18   19 ar
  34   18   34 1
  35   19   20 ar
  36   19   35 1
  37   20   21 ar
  38   20   36 1
  39   21   37 1

#	End of record

