#	Name: ASD01810935
#	Creating user name:	WinNT
#	Creation time:	15. 06. 2019 19:25

#	Modifying user name:	WinNT
#	Modification time:	15. 06. 2019 19:25

#	Program:	/corina/corina34_cracker 3.40 0067  02.08.2006

@<TRIPOS>MOLECULE
ASD01810935
  69   73    0    0    0
SMALL
NO_CHARGES


@<TRIPOS>ATOM
   1 C1            -7.2420     2.0670    -3.8743 C.1     
   2 C2            -6.2739     2.8748    -3.1953 C.ar    
   3 C3            -5.1142     2.2938    -2.6784 C.ar    
   4 C4            -4.1859     3.0779    -2.0254 C.ar    
   5 C5            -4.4021     4.4369    -1.8817 C.ar    
   6 C6            -5.5493     5.0191    -2.3911 C.ar    
   7 C7            -6.4828     4.2480    -3.0522 C.ar    
   8 N8            -8.0099     1.4262    -4.4129 N.1     
   9 N9            -2.3781     7.7284    -0.1524 N.am    
  10 C10           -1.8018     7.2062    -1.3990 C.3     
  11 C11           -2.8618     6.3660    -2.1183 C.3     
  12 C12           -3.3836     5.2870    -1.1667 C.3     
  13 C13           -4.0354     5.9488     0.0495 C.3     
  14 C14           -2.9888     6.7842     0.7933 C.3     
  15 C15           -2.3423     9.0476     0.1209 C.2     
  16 C16           -3.0040     9.5691     1.3360 C.ar    
  17 C17           -3.9618    10.5806     1.2322 C.ar    
  18 C18           -4.5803    11.0683     2.3658 C.ar    
  19 C19           -4.2572    10.5606     3.6090 C.ar    
  20 C20           -3.3021     9.5494     3.7267 C.ar    
  21 C21           -2.6778     9.0488     2.5866 C.ar    
  22 O22           -1.7660     9.8087    -0.6315 O.2     
  23 N23           -2.9804     8.6521     7.1555 N.2     
  24 N24           -3.5346     9.3103     6.2005 N.2     
  25 C25           -2.9569     9.0072     5.0594 C.2     
  26 N26           -1.9756     8.0949     5.3381 N.pl3   
  27 C27           -2.0248     7.8970     6.6835 C.2     
  28 C28           -1.1397     6.9754     7.4823 C.3     
  29 O29           -0.2177     6.3232     6.6068 O.3     
  30 C30            0.6728     5.4217     7.2674 C.3     
  31 C31           -4.3202    11.1408    -0.1201 C.3     
  32 C32           -5.2990    10.1960    -0.8204 C.3     
  33 C33           -4.9369    11.0999     4.8411 C.3     
  34 C34           -4.8047    12.6237     5.0005 C.3     
  35 C35           -6.2678    12.6221     5.4738 C.3     
  36 C36           -6.4469    11.3288     4.6614 C.3     
  37 H37           -4.9445     1.2330    -2.7893 H       
  38 H38           -3.2884     2.6299    -1.6252 H       
  39 H39           -5.7120     6.0804    -2.2751 H       
  40 H40           -7.3755     4.7044    -3.4535 H       
  41 H41           -1.4986     8.0362    -2.0372 H       
  42 H42           -0.9367     6.5843    -1.1693 H       
  43 H43           -3.6866     7.0080    -2.4276 H       
  44 H44           -2.4186     5.8943    -2.9953 H       
  45 H45           -2.5543     4.6606    -0.8381 H       
  46 H46           -4.8491     6.5947    -0.2803 H       
  47 H47           -4.4276     5.1801     0.7154 H       
  48 H48           -2.2204     6.1279     1.2019 H       
  49 H49           -3.4687     7.3358     1.6017 H       
  50 H50           -5.3199    11.8506     2.2803 H       
  51 H51           -1.9409     8.2639     2.6720 H       
  52 H52           -1.3699     7.6758     4.7068 H       
  53 H53           -0.5891     7.5534     8.2245 H       
  54 H54           -1.7533     6.2283     7.9857 H       
  55 H55            0.0968     4.6424     7.7664 H       
  56 H56            1.3399     4.9677     6.5346 H       
  57 H57            1.2610     5.9675     8.0051 H       
  58 H58           -4.7849    12.1190     0.0034 H       
  59 H59           -3.4175    11.2408    -0.7228 H       
  60 H60           -4.8343     9.2178    -0.9439 H       
  61 H61           -6.2016    10.0960    -0.2177 H       
  62 H62           -5.5582    10.6013    -1.7985 H       
  63 H63           -4.6826    10.5429     5.7429 H       
  64 H64           -4.0961    12.9221     5.7732 H       
  65 H65           -4.6511    13.1496     4.0582 H       
  66 H66           -6.3788    12.4813     6.5489 H       
  67 H67           -6.8507    13.4609     5.0933 H       
  68 H68           -6.7423    11.5006     3.6264 H       
  69 H69           -7.0642    10.5817     5.1603 H       
@<TRIPOS>BOND
   1    1    2 1
   2    1    8 3
   3    2    3 ar
   4    2    7 ar
   5    3    4 ar
   6    3   37 1
   7    4    5 ar
   8    4   38 1
   9    5    6 ar
  10    5   12 1
  11    6    7 ar
  12    6   39 1
  13    7   40 1
  14    9   10 1
  15    9   14 1
  16    9   15 am
  17   10   11 1
  18   10   41 1
  19   10   42 1
  20   11   12 1
  21   11   43 1
  22   11   44 1
  23   12   13 1
  24   12   45 1
  25   13   14 1
  26   13   46 1
  27   13   47 1
  28   14   48 1
  29   14   49 1
  30   15   16 1
  31   15   22 2
  32   16   17 ar
  33   16   21 ar
  34   17   18 ar
  35   17   31 1
  36   18   19 ar
  37   18   50 1
  38   19   20 ar
  39   19   33 1
  40   20   21 ar
  41   20   25 1
  42   21   51 1
  43   23   24 1
  44   23   27 2
  45   24   25 2
  46   25   26 1
  47   26   27 1
  48   26   52 1
  49   27   28 1
  50   28   29 1
  51   28   53 1
  52   28   54 1
  53   29   30 1
  54   30   55 1
  55   30   56 1
  56   30   57 1
  57   31   32 1
  58   31   58 1
  59   31   59 1
  60   32   60 1
  61   32   61 1
  62   32   62 1
  63   33   34 1
  64   33   36 1
  65   33   63 1
  66   34   35 1
  67   34   64 1
  68   34   65 1
  69   35   36 1
  70   35   66 1
  71   35   67 1
  72   36   68 1
  73   36   69 1

#	End of record

