#	Name: ASD01230684
#	Creating user name:	WinNT
#	Creation time:	15. 06. 2019 19:14

#	Modifying user name:	WinNT
#	Modification time:	15. 06. 2019 19:14

#	Program:	/corina/corina34_cracker 3.40 0067  02.08.2006

@<TRIPOS>MOLECULE
ASD01230684
  40   42    0    0    0
SMALL
NO_CHARGES


@<TRIPOS>ATOM
   1 S1            -0.0346     1.6533    -0.0121 S.o2    
   2 N2            -0.0069    -0.0011    -0.0113 N.am    
   3 C3             1.0179    -0.6838    -0.4613 C.2     
   4 N4             2.1639    -0.1477    -0.9759 N.pl3   
   5 C5             2.3845     1.2892    -1.1596 C.3     
   6 C6             1.7346     2.0834    -0.0229 C.3     
   7 C7             0.8945    -2.1555    -0.3924 C.2     
   8 C8             1.9487    -2.9375    -0.8115 C.2     
   9 C9             3.1076    -2.3137    -1.2940 C.2     
  10 C10            3.1902    -0.9740    -1.3612 C.2     
  11 C11           -0.3456    -2.7809     0.1207 C.ar    
  12 C12           -0.3169    -3.5260     1.3001 C.ar    
  13 C13           -1.4738    -4.1065     1.7751 C.ar    
  14 C14           -2.6662    -3.9509     1.0812 C.ar    
  15 C15           -2.6987    -3.2102    -0.0927 C.ar    
  16 C16           -1.5470    -2.6219    -0.5708 C.ar    
  17 O17           -3.8044    -4.5252     1.5520 O.3     
  18 C18           -3.6786    -5.3709     2.6970 C.3     
  19 C19           -3.7242    -4.5194     3.9674 C.3     
  20 C20           -4.8304    -6.3778     2.7163 C.3     
  21 O21           -0.6456     2.0001    -1.2473 O.2     
  22 O22           -0.6307     2.0015     1.2299 O.2     
  23 H23            3.4558     1.4897    -1.1715 H       
  24 H24            1.9506     1.6009    -2.1097 H       
  25 H25            1.8560     3.1521    -0.1998 H       
  26 H26            2.1893     1.8094     0.9290 H       
  27 H27            1.8833    -4.0146    -0.7686 H       
  28 H28            3.9440    -2.9168    -1.6154 H       
  29 H29            4.1013    -0.5292    -1.7333 H       
  30 H30            0.6105    -3.6481     1.8400 H       
  31 H31           -1.4523    -4.6834     2.6879 H       
  32 H32           -3.6281    -3.0913    -0.6298 H       
  33 H33           -1.5738    -2.0424    -1.4818 H       
  34 H34           -2.7296    -5.9052     2.6516 H       
  35 H35           -4.6732    -3.9851     4.0127 H       
  36 H36           -3.6283    -5.1645     4.8407 H       
  37 H37           -2.9037    -3.8021     3.9536 H       
  38 H38           -4.7979    -6.9844     1.8113 H       
  39 H39           -4.7345    -7.0229     3.5897 H       
  40 H40           -5.7794    -5.8435     2.7617 H       
@<TRIPOS>BOND
   1    1    2 am
   2    1    6 1
   3    1   21 2
   4    1   22 2
   5    2    3 2
   6    3    4 1
   7    3    7 1
   8    4    5 1
   9    4   10 1
  10    5    6 1
  11    5   23 1
  12    5   24 1
  13    6   25 1
  14    6   26 1
  15    7    8 2
  16    7   11 1
  17    8    9 1
  18    8   27 1
  19    9   10 2
  20    9   28 1
  21   10   29 1
  22   11   12 ar
  23   11   16 ar
  24   12   13 ar
  25   12   30 1
  26   13   14 ar
  27   13   31 1
  28   14   15 ar
  29   14   17 1
  30   15   16 ar
  31   15   32 1
  32   16   33 1
  33   17   18 1
  34   18   19 1
  35   18   20 1
  36   18   34 1
  37   19   35 1
  38   19   36 1
  39   19   37 1
  40   20   38 1
  41   20   39 1
  42   20   40 1

#	End of record

