#	Name: ASD05740072
#	Creating user name:	WinNT
#	Creation time:	15. 06. 2019 21:02

#	Modifying user name:	WinNT
#	Modification time:	15. 06. 2019 21:02

#	Program:	/corina/corina34_cracker 3.40 0067  02.08.2006

@<TRIPOS>MOLECULE
ASD05740072
  50   51    0    0    0
SMALL
NO_CHARGES


@<TRIPOS>ATOM
   1 C1            -0.0184     1.5028     0.0103 C.3     
   2 C2             1.2237    -0.7060    -0.0134 C.2     
   3 C3             1.2297    -2.0953    -0.0204 C.2     
   4 C4             0.0021    -0.0041     0.0020 C.2     
   5 C5            -1.1614    -0.7154     0.0098 C.2     
   6 C6            -1.1114    -2.1194     0.0022 C.2     
   7 O7             0.0641    -2.7685    -0.0121 O.3     
   8 C8            -2.4887    -0.0019     0.0268 C.3     
   9 C9            -3.0038     0.1345    -1.3829 C.ar    
  10 C10           -2.7714     1.2916    -2.1153 C.ar    
  11 O11           -2.1504    -2.7578     0.0091 O.2     
  12 C12           -4.1739    -0.7292    -3.2847 C.ar    
  13 N13           -3.9356     0.3919    -3.9463 N.ar    
  14 C14           -3.2561     1.3852    -3.4038 C.ar    
  15 N15           -4.8944    -1.7508    -3.8957 N.am    
  16 S16           -5.4497    -1.5609    -5.4442 S.o2    
  17 O17           -6.1056    -2.7740    -5.7869 O.2     
  18 O18           -6.0886    -0.2924    -5.4886 O.2     
  19 O19            2.5112    -2.4955    -0.0349 O.3     
  20 C20            3.3470    -1.4419    -0.0378 C.2     
  21 C21            2.6347    -0.2991    -0.0310 C.2     
  22 O22            4.7025    -1.5188    -0.0514 O.3     
  23 N23           -4.1239    -1.4514    -6.4304 N.am    
  24 C24           -3.2240    -2.5980    -6.5779 C.3     
  25 C25           -3.7146    -0.8930    -1.9794 C.ar    
  26 F26           -3.9588    -2.0383    -1.3058 F       
  27 C27            5.2780    -2.8267    -0.0641 C.3     
  28 H28            1.0042     1.8801     0.0026 H       
  29 H29           -0.5455     1.8639    -0.8728 H       
  30 H30           -0.5286     1.8543     0.9071 H       
  31 H31           -3.2014    -0.5745     0.6203 H       
  32 H32           -2.3634     0.9882     0.4652 H       
  33 H33           -2.2172     2.1102    -1.6804 H       
  34 H34           -3.0772     2.2833    -3.9763 H       
  35 H35           -5.0714    -2.5743    -3.4146 H       
  36 H36            3.0215     0.7092    -0.0312 H       
  37 H37           -3.9431    -0.6281    -6.9104 H       
  38 H38           -2.4152    -2.3396    -7.2614 H       
  39 H39           -2.8078    -2.8607    -5.6053 H       
  40 H40           -3.7794    -3.4469    -6.9767 H       
  41 H41            4.9454    -3.3614    -0.9538 H       
  42 H42            6.3649    -2.7453    -0.0742 H       
  43 H43            4.9627    -3.3711     0.8261 H       
  44 C44           11.8921     9.9527     7.7754 C.3     
  45 N45           11.9120     8.4878     7.7673 N.2     
  46 C46           12.4527     7.8753     6.8213 C.1     
  47 O47           12.9752     7.2833     5.9071 O.2     
  48 H48           12.9147    10.3300     7.7676 H       
  49 H49           11.3649    10.3137     6.8923 H       
  50 H50           11.3819    10.3042     8.6722 H       
@<TRIPOS>BOND
   1    1    4 1
   2    1   28 1
   3    1   29 1
   4    1   30 1
   5    2    3 2
   6    2    4 1
   7    2   21 1
   8    3   19 1
   9    3    7 1
  10    4    5 2
  11    5    6 1
  12    5    8 1
  13    6    7 1
  14    6   11 2
  15    8    9 1
  16    8   31 1
  17    8   32 1
  18    9   10 ar
  19    9   25 ar
  20   10   14 ar
  21   10   33 1
  22   12   13 ar
  23   12   15 1
  24   12   25 ar
  25   13   14 ar
  26   14   34 1
  27   15   16 am
  28   15   35 1
  29   16   17 2
  30   16   18 2
  31   16   23 am
  32   19   20 1
  33   20   21 2
  34   20   22 1
  35   21   36 1
  36   22   27 1
  37   23   24 1
  38   23   37 1
  39   24   38 1
  40   24   39 1
  41   24   40 1
  42   25   26 1
  43   27   41 1
  44   27   42 1
  45   27   43 1
  46   44   45 1
  47   44   48 1
  48   44   49 1
  49   44   50 1
  50   45   46 2
  51   46   47 2

#	End of record

