#	Name: ASD08070681
#	Creating user name:	WinNT
#	Creation time:	15. 06. 2019 21:15

#	Modifying user name:	WinNT
#	Modification time:	15. 06. 2019 21:15

#	Program:	/corina/corina34_cracker 3.40 0067  02.08.2006

@<TRIPOS>MOLECULE
ASD08070681
  42   42    0    0    0
SMALL
NO_CHARGES


@<TRIPOS>ATOM
   1 C1            -0.0168     1.3889     0.0097 C.ar    
   2 C2             0.0021    -0.0041     0.0020 C.ar    
   3 C3             1.2225    -0.6606    -0.0132 C.ar    
   4 C4             2.3820     0.0991    -0.0202 C.ar    
   5 C5             2.2883     1.4815    -0.0119 C.ar    
   6 N6             1.1168     2.0790     0.0026 N.ar    
   7 C7            -1.3134     2.1059     0.0197 C.2     
   8 O8            -2.3544     1.4791     0.0212 O.2     
   9 N9            -1.3382     3.4534     0.0271 N.am    
  10 C10            3.5460     2.3117    -0.0195 C.3     
  11 C11            3.7312    -0.5720    -0.0363 C.3     
  12 C12           -1.8477     6.7926     2.7410 C.3     
  13 C13           -2.0371     5.4051     2.1247 C.3     
  14 C14           -2.4309     5.5500     0.6534 C.3     
  15 C15           -2.6202     4.1624     0.0371 C.3     
  16 C16           -3.1341     4.3070    -1.3968 C.3     
  17 C17           -3.4418     2.9224    -1.9703 C.3     
  18 C18           -3.9557     3.0670    -3.4042 C.3     
  19 H19           -0.9212    -0.5643     0.0082 H       
  20 H20            1.2691    -1.7396    -0.0191 H       
  21 H21           -0.5072     3.9538     0.0259 H       
  22 H22            3.8394     2.5173    -1.0490 H       
  23 H23            3.3639     3.2518     0.5011 H       
  24 H24            4.3444     1.7663     0.4838 H       
  25 H25            4.0469    -0.7286    -1.0678 H       
  26 H26            4.4577     0.0604     0.4740 H       
  27 H27            3.6650    -1.5333     0.4733 H       
  28 H28           -1.0613     7.3240     2.2050 H       
  29 H29           -2.7798     7.3529     2.6678 H       
  30 H30           -1.5672     6.6894     3.7892 H       
  31 H31           -1.1050     4.8448     2.1979 H       
  32 H32           -2.8235     4.8737     2.6607 H       
  33 H33           -3.3630     6.1103     0.5802 H       
  34 H34           -1.6445     6.0814     0.1174 H       
  35 H35           -3.3428     3.5984     0.6269 H       
  36 H36           -4.0416     4.9108    -1.3983 H       
  37 H37           -2.3735     4.7928    -2.0081 H       
  38 H38           -2.5343     2.3186    -1.9688 H       
  39 H39           -4.2023     2.4367    -1.3590 H       
  40 H40           -4.1749     2.0806    -3.8128 H       
  41 H41           -4.8632     3.6708    -3.4057 H       
  42 H42           -3.1951     3.5527    -4.0155 H       
@<TRIPOS>BOND
   1    1    2 ar
   2    1    6 ar
   3    1    7 1
   4    2    3 ar
   5    2   19 1
   6    3    4 ar
   7    3   20 1
   8    4    5 ar
   9    4   11 1
  10    5    6 ar
  11    5   10 1
  12    7    8 2
  13    7    9 am
  14    9   15 1
  15    9   21 1
  16   10   22 1
  17   10   23 1
  18   10   24 1
  19   11   25 1
  20   11   26 1
  21   11   27 1
  22   12   13 1
  23   12   28 1
  24   12   29 1
  25   12   30 1
  26   13   14 1
  27   13   31 1
  28   13   32 1
  29   14   15 1
  30   14   33 1
  31   14   34 1
  32   15   16 1
  33   15   35 1
  34   16   17 1
  35   16   36 1
  36   16   37 1
  37   17   18 1
  38   17   38 1
  39   17   39 1
  40   18   40 1
  41   18   41 1
  42   18   42 1

#	End of record

