#	Name: ASD03330772
#	Creating user name:	WinNT
#	Creation time:	15. 06. 2019 20:37

#	Modifying user name:	WinNT
#	Modification time:	15. 06. 2019 20:37

#	Program:	/corina/corina34_cracker 3.40 0067  02.08.2006

@<TRIPOS>MOLECULE
ASD03330772
  66   68    0    0    0
SMALL
NO_CHARGES


@<TRIPOS>ATOM
   1 C1            -0.4105     2.3153     0.9773 C.2     
   2 N2            -0.8186     1.1157     1.4701 N.pl3   
   3 C3             0.9485     2.2740     0.8978 C.2     
   4 N4             1.3494     1.0556     1.3222 N.2     
   5 C5             0.2952     0.3517     1.6623 C.2     
   6 C6             0.3118    -1.0375     2.1695 C.ar    
   7 C7             1.8248     3.3632     0.4317 C.2     
   8 O8             1.3424     4.4203     0.0724 O.2     
   9 C9             4.0320     4.2708    -0.0599 C.3     
  10 N10            3.1608     3.1879     0.4035 N.am    
  11 C11            5.3430     3.6816    -0.5842 C.3     
  12 C12            4.3239     5.2056     1.0855 C.2     
  13 O13            3.9764     4.9138     2.2102 O.2     
  14 C14           -2.2072     0.7400     1.7497 C.3     
  15 C15           -3.0826     1.1254     0.5532 C.3     
  16 C16           -3.5609     2.5656     0.7067 C.3     
  17 N17           -2.5491     3.3888     1.3719 N.3     
  18 C18           -1.3111     3.4565     0.5814 C.3     
  19 C19           -0.4580    -1.3874     3.2792 C.ar    
  20 C20            1.0941    -2.0063     1.5361 C.ar    
  21 C21            1.1053    -3.3030     2.0153 C.ar    
  22 C22            0.3442    -3.6420     3.1185 C.ar    
  23 C23           -0.4380    -2.6867     3.7482 C.ar    
  24 C24           -3.0675     4.7339     1.6546 C.3     
  25 N25            4.9712     6.3661     0.8600 N.am    
  26 C26            5.3257     7.2374     1.9831 C.3     
  27 C27            5.0685     2.8798    -1.8580 C.3     
  28 C28            4.2045     1.6635    -1.5188 C.3     
  29 C29            4.3322     3.7628    -2.8676 C.3     
  30 C30            6.3941     2.4114    -2.4615 C.3     
  31 C31            5.3203     6.7562    -0.5083 C.3     
  32 F32           -1.1786    -3.0258     4.8260 F       
  33 F33            1.8377    -1.6767     0.4573 F       
  34 H34            3.5350     4.8200    -0.8595 H       
  35 H35            3.5455     2.3449     0.6901 H       
  36 H36            6.0410     4.4888    -0.8063 H       
  37 H37            5.7747     3.0258     0.1720 H       
  38 H38           -2.2675    -0.3359     1.9137 H       
  39 H39           -2.5546     1.2651     2.6395 H       
  40 H40           -2.5028     1.0320    -0.3651 H       
  41 H41           -3.9448     0.4602     0.5057 H       
  42 H42           -3.7679     2.9808    -0.2796 H       
  43 H43           -4.4766     2.5772     1.2980 H       
  44 H44           -0.8064     4.4031     0.7748 H       
  45 H45           -1.5512     3.3802    -0.4791 H       
  46 H46           -1.0680    -0.6440     3.7708 H       
  47 H47            1.7096    -4.0529     1.5266 H       
  48 H48            0.3561    -4.6564     3.4888 H       
  49 H49           -3.9391     4.6582     2.3047 H       
  50 H50           -2.2958     5.3243     2.1486 H       
  51 H51           -3.3522     5.2174     0.7200 H       
  52 H52            6.3150     6.9685     2.3534 H       
  53 H53            5.3321     8.2752     1.6499 H       
  54 H54            4.5937     7.1167     2.7817 H       
  55 H55            3.1928     1.9917    -1.2801 H       
  56 H56            4.1753     0.9887    -2.3743 H       
  57 H57            4.6299     1.1437    -0.6603 H       
  58 H58            4.9478     4.6293    -3.1093 H       
  59 H59            4.1366     3.1916    -3.7751 H       
  60 H60            3.3878     4.0965    -2.4377 H       
  61 H61            6.9186     1.7824    -1.7422 H       
  62 H62            6.1985     1.8402    -3.3690 H       
  63 H63            7.0096     3.2779    -2.7031 H       
  64 H64            4.5094     7.3456    -0.9362 H       
  65 H65            6.2337     7.3508    -0.4947 H       
  66 H66            5.4776     5.8624    -1.1120 H       
@<TRIPOS>BOND
   1    1    2 1
   2    1    3 2
   3    1   18 1
   4    2   14 1
   5    2    5 1
   6    3    4 1
   7    3    7 1
   8    4    5 2
   9    5    6 1
  10    6   20 ar
  11    6   19 ar
  12    7    8 2
  13    7   10 am
  14    9   10 1
  15    9   11 1
  16    9   12 1
  17    9   34 1
  18   10   35 1
  19   11   27 1
  20   11   36 1
  21   11   37 1
  22   12   13 2
  23   12   25 am
  24   14   15 1
  25   14   38 1
  26   14   39 1
  27   15   16 1
  28   15   40 1
  29   15   41 1
  30   16   17 1
  31   16   42 1
  32   16   43 1
  33   17   18 1
  34   17   24 1
  35   18   44 1
  36   18   45 1
  37   19   23 ar
  38   19   46 1
  39   20   21 ar
  40   20   33 1
  41   21   22 ar
  42   21   47 1
  43   22   23 ar
  44   22   48 1
  45   23   32 1
  46   24   49 1
  47   24   50 1
  48   24   51 1
  49   25   26 1
  50   25   31 1
  51   26   52 1
  52   26   53 1
  53   26   54 1
  54   27   29 1
  55   27   30 1
  56   27   28 1
  57   28   55 1
  58   28   56 1
  59   28   57 1
  60   29   58 1
  61   29   59 1
  62   29   60 1
  63   30   61 1
  64   30   62 1
  65   30   63 1
  66   31   64 1
  67   31   65 1
  68   31   66 1

#	End of record

