#	Name: ASD01880005
#	Creating user name:	WinNT
#	Creation time:	15. 06. 2019 19:39

#	Modifying user name:	WinNT
#	Modification time:	15. 06. 2019 19:39

#	Program:	/corina/corina34_cracker 3.40 0067  02.08.2006

@<TRIPOS>MOLECULE
ASD01880005
  56   58    0    0    0
SMALL
NO_CHARGES


@<TRIPOS>ATOM
   1 N1            -0.0154     1.2831     0.0091 N.pl3   
   2 N2             0.0021    -0.0041     0.0020 N.2     
   3 N3             1.2275    -0.4062    -0.0118 N.2     
   4 C4             2.0048     0.6860    -0.0134 C.2     
   5 N5             1.1948     1.7260    -0.0001 N.2     
   6 C6             3.4887     0.7182    -0.0270 C.ar    
   7 C7             4.2126    -0.4724    -0.0403 C.ar    
   8 C8             5.5913    -0.4396    -0.0529 C.ar    
   9 C9             6.2579     0.7781    -0.0517 C.ar    
  10 C10            5.5393     1.9658    -0.0380 C.ar    
  11 C11            4.1604     1.9390    -0.0321 C.ar    
  12 C12           13.9212     4.4536    -0.0986 C.ar    
  13 C13           14.6397     3.2611    -0.1119 C.ar    
  14 C14           16.0041     3.2770    -0.1292 C.ar    
  15 C15           16.6919     4.4979    -0.1341 C.ar    
  16 C16           15.9687     5.7046    -0.1211 C.ar    
  17 C17           14.5853     5.6722    -0.1031 C.ar    
  18 C18           13.8008     6.9588    -0.0896 C.3     
  19 C19           13.5165     7.3979    -1.5274 C.3     
  20 C20           12.7201     8.7042    -1.5137 C.3     
  21 O21           16.6232     6.8922    -0.1252 O.3     
  22 C22           18.1565     4.5177    -0.1521 C.2     
  23 C23           18.9275     3.2229    -0.1654 C.3     
  24 O24           18.7490     5.5766    -0.1563 O.2     
  25 O25            7.6163     0.8075    -0.0636 O.3     
  26 C26            8.2373     2.0945    -0.0617 C.3     
  27 C27            9.7581     1.9269    -0.0762 C.3     
  28 C28           10.4230     3.3049    -0.0741 C.3     
  29 C29           11.9438     3.1373    -0.0886 C.3     
  30 O30           12.5648     4.4243    -0.0867 O.3     
  31 H31           -0.8142     1.8333     0.0160 H       
  32 H32            3.6945    -1.4200    -0.0405 H       
  33 H33            6.1528    -1.3621    -0.0632 H       
  34 H34            6.0605     2.9118    -0.0367 H       
  35 H35            3.6018     2.8633    -0.0214 H       
  36 H36           14.1140     2.3177    -0.1082 H       
  37 H37           16.5544     2.3477    -0.1387 H       
  38 H38           12.8586     6.8044     0.4362 H       
  39 H39           14.3782     7.7311     0.4187 H       
  40 H40           14.4587     7.5524    -2.0532 H       
  41 H41           12.9391     6.6257    -2.0357 H       
  42 H42           12.5175     9.0170    -2.5380 H       
  43 H43           11.7778     8.5498    -0.9879 H       
  44 H44           13.2974     9.4765    -1.0054 H       
  45 H45           16.8021     7.2396    -1.0097 H       
  46 H46           18.6609     2.6505    -1.0539 H       
  47 H47           19.9963     3.4366    -0.1780 H       
  48 H48           18.6829     2.6452     0.7259 H       
  49 H49            7.9246     2.6502    -0.9457 H       
  50 H50            7.9404     2.6399     0.8342 H       
  51 H51           10.0708     1.3712     0.8078 H       
  52 H52           10.0550     1.3816    -0.9720 H       
  53 H53           10.1103     3.8606    -0.9581 H       
  54 H54           10.1261     3.8502     0.8217 H       
  55 H55           12.2565     2.5816     0.7954 H       
  56 H56           12.2407     2.5919    -0.9845 H       
@<TRIPOS>BOND
   1    1    2 1
   2    1    5 1
   3    1   31 1
   4    2    3 2
   5    3    4 1
   6    4    5 2
   7    4    6 1
   8    6    7 ar
   9    6   11 ar
  10    7    8 ar
  11    7   32 1
  12    8    9 ar
  13    8   33 1
  14    9   10 ar
  15    9   25 1
  16   10   11 ar
  17   10   34 1
  18   11   35 1
  19   12   13 ar
  20   12   17 ar
  21   12   30 1
  22   13   14 ar
  23   13   36 1
  24   14   15 ar
  25   14   37 1
  26   15   16 ar
  27   15   22 1
  28   16   17 ar
  29   16   21 1
  30   17   18 1
  31   18   19 1
  32   18   38 1
  33   18   39 1
  34   19   20 1
  35   19   40 1
  36   19   41 1
  37   20   42 1
  38   20   43 1
  39   20   44 1
  40   21   45 1
  41   22   23 1
  42   22   24 2
  43   23   46 1
  44   23   47 1
  45   23   48 1
  46   25   26 1
  47   26   27 1
  48   26   49 1
  49   26   50 1
  50   27   28 1
  51   27   51 1
  52   27   52 1
  53   28   29 1
  54   28   53 1
  55   28   54 1
  56   29   30 1
  57   29   55 1
  58   29   56 1

#	End of record

