#	Name: ASD05720285
#	Creating user name:	WinNT
#	Creation time:	15. 06. 2019 21:02

#	Modifying user name:	WinNT
#	Modification time:	15. 06. 2019 21:02

#	Program:	/corina/corina34_cracker 3.40 0067  02.08.2006

@<TRIPOS>MOLECULE
ASD05720285
  48   52    0    0    0
SMALL
NO_CHARGES


@<TRIPOS>ATOM
   1 O1            -0.1052     1.1932     0.1309 O.3     
   2 C2             0.0755    -0.1222    -0.0314 C.2     
   3 N3             1.3622    -0.4854    -0.1223 N.am    
   4 C4             2.2046     0.7152    -0.0116 C.3     
   5 C5             1.1892     1.8612     0.1617 C.3     
   6 O6            -0.8430    -0.9153    -0.0906 O.2     
   7 C7             3.0270     0.9141    -1.2864 C.3     
   8 C8             2.0853     1.0581    -2.4836 C.3     
   9 C9             3.8783     2.1783    -1.1522 C.3     
  10 C10            3.5740    -3.2491    -0.6457 C.2     
  11 N11            3.1119    -2.0058    -0.4807 N.2     
  12 C12            1.8248    -1.7837    -0.2923 C.2     
  13 C13            0.9192    -2.8638    -0.2630 C.2     
  14 C14            1.3833    -4.1231    -0.4295 C.2     
  15 N15            2.7221    -4.3216    -0.6228 N.pl3   
  16 N16            3.4825    -5.4797    -0.8204 N.2     
  17 C17            4.7433    -5.1510    -0.9597 C.2     
  18 C18            4.8608    -3.7591    -0.8639 C.2     
  19 C19            6.1106    -2.9734    -0.9715 C.ar    
  20 C20            7.2282    -3.3330    -0.2165 C.ar    
  21 C21            8.3923    -2.6003    -0.3174 C.ar    
  22 C22            8.4515    -1.4990    -1.1751 C.ar    
  23 C23            7.3341    -1.1411    -1.9285 C.ar    
  24 C24            6.1734    -1.8761    -1.8322 C.ar    
  25 N25           11.2016     0.7735    -1.8457 N.pl3   
  26 N26            9.8812     0.3422    -2.0523 N.2     
  27 C27            9.7025    -0.7104    -1.2837 C.2     
  28 N28           10.8387    -0.9516    -0.6152 N.2     
  29 C29           11.7424    -0.0673    -0.9458 C.2     
  30 F30            9.4746    -2.9470     0.4131 F       
  31 H31            2.8567     0.6465     0.8591 H       
  32 H32            1.2718     2.5725    -0.6602 H       
  33 H33            1.3380     2.3622     1.1182 H       
  34 H34            3.6774     0.0525    -1.4373 H       
  35 H35            1.3794     1.8670    -2.2953 H       
  36 H36            2.6663     1.2836    -3.3778 H       
  37 H37            1.5393     0.1262    -2.6305 H       
  38 H38            3.2353     3.0257    -0.9146 H       
  39 H39            4.6086     2.0415    -0.3547 H       
  40 H40            4.3974     2.3682    -2.0916 H       
  41 H41           -0.1350    -2.6872    -0.1087 H       
  42 H42            0.7040    -4.9625    -0.4096 H       
  43 H43            5.5579    -5.8406    -1.1247 H       
  44 H44            7.1813    -4.1843     0.4464 H       
  45 H45            7.3803    -0.2897    -2.5914 H       
  46 H46            5.3100    -1.6007    -2.4196 H       
  47 H47           11.6391     1.5273    -2.2714 H       
  48 H48           12.7508    -0.0198    -0.5621 H       
@<TRIPOS>BOND
   1    1    2 1
   2    1    5 1
   3    2    3 am
   4    2    6 2
   5    3    4 1
   6    3   12 1
   7    4    5 1
   8    4    7 1
   9    4   31 1
  10    5   32 1
  11    5   33 1
  12    7    8 1
  13    7    9 1
  14    7   34 1
  15    8   35 1
  16    8   36 1
  17    8   37 1
  18    9   38 1
  19    9   39 1
  20    9   40 1
  21   10   11 1
  22   10   15 1
  23   10   18 2
  24   11   12 2
  25   12   13 1
  26   13   14 2
  27   13   41 1
  28   14   15 1
  29   14   42 1
  30   15   16 1
  31   16   17 2
  32   17   18 1
  33   17   43 1
  34   18   19 1
  35   19   20 ar
  36   19   24 ar
  37   20   21 ar
  38   20   44 1
  39   21   22 ar
  40   21   30 1
  41   22   23 ar
  42   22   27 1
  43   23   24 ar
  44   23   45 1
  45   24   46 1
  46   25   26 1
  47   25   29 1
  48   25   47 1
  49   26   27 2
  50   27   28 1
  51   28   29 2
  52   29   48 1

#	End of record

