#	Name: ASD03730038
#	Creating user name:	WinNT
#	Creation time:	15. 06. 2019 20:43

#	Modifying user name:	WinNT
#	Modification time:	15. 06. 2019 20:43

#	Program:	/corina/corina34_cracker 3.40 0067  02.08.2006

@<TRIPOS>MOLECULE
ASD03730038
  45   49    0    0    0
SMALL
NO_CHARGES


@<TRIPOS>ATOM
   1 C1            -0.0184     1.5028     0.0103 C.2     
   2 C2             0.0021    -0.0041     0.0020 C.3     
   3 O3             1.0291     2.1267     0.0037 O.co2   
   4 O4            -1.0824     2.0980     0.0186 O.co2   
   5 O5             5.2351    -2.4843     1.3753 O.3     
   6 C6             5.5783    -1.1844     1.6017 C.ar    
   7 C7             4.5759    -0.3174     1.1730 C.ar    
   8 C8             3.4661    -1.1774     0.6322 C.3     
   9 C9             3.8127    -2.5739     1.1672 C.3     
  10 O10            7.9248     1.4261     2.8376 O.3     
  11 C11            6.8893     0.7170     2.3086 C.ar    
  12 C12            5.8817     1.5611     1.8584 C.ar    
  13 C13            6.3412     2.9822     2.1191 C.3     
  14 C14            7.8540     2.7860     2.3770 C.3     
  15 C15            4.7327     1.0464     1.2985 C.ar    
  16 C16            6.7307    -0.6573     2.1712 C.ar    
  17 N17            1.3897    -0.4735    -0.0138 N.am    
  18 C18            2.1130    -0.7212     1.0965 C.2     
  19 C19            3.4015    -1.1532    -0.8661 C.ar    
  20 C20            4.3030    -1.4574    -1.8628 C.ar    
  21 C21            3.9358    -1.3309    -3.1916 C.ar    
  22 C22            2.6627    -0.8988    -3.5152 C.ar    
  23 C23            1.7568    -0.5933    -2.5209 C.ar    
  24 C24            2.1171    -0.7177    -1.1811 C.ar    
  25 O25            1.7431    -0.5998     2.2452 O.2     
  26 C26            8.3493     3.7504     3.4566 C.3     
  27 C27            8.6517     2.9623     1.0834 C.3     
  28 Br28           6.0430    -2.0473    -1.4153 Br      
  29 H29           -0.4983    -0.3791     0.8948 H       
  30 H30           -0.5153    -0.3696    -0.8850 H       
  31 H31            3.5770    -3.3406     0.4291 H       
  32 H32            3.2955    -2.7678     2.1069 H       
  33 H33            6.1734     3.6124     1.2458 H       
  34 H34            5.8467     3.3965     2.9977 H       
  35 H35            3.9541     1.7124     0.9572 H       
  36 H36            7.5111    -1.3221     2.5110 H       
  37 H37            4.6419    -1.5688    -3.9734 H       
  38 H38            2.3762    -0.8000    -4.5518 H       
  39 H39            0.7648    -0.2558    -2.7821 H       
  40 H40            9.3923     3.5333     3.6869 H       
  41 H41            8.2626     4.7753     3.0958 H       
  42 H42            7.7458     3.6296     4.3563 H       
  43 H43            8.2600     2.2895     0.3205 H       
  44 H44            8.5628     3.9928     0.7393 H       
  45 H45            9.7005     2.7303     1.2687 H       
@<TRIPOS>BOND
   1    1    2 1
   2    1    3 ar
   3    1    4 ar
   4    2   17 1
   5    2   29 1
   6    2   30 1
   7    5    6 1
   8    5    9 1
   9    6    7 ar
  10    6   16 ar
  11    7    8 1
  12    7   15 ar
  13    8    9 1
  14    8   18 1
  15    8   19 1
  16    9   31 1
  17    9   32 1
  18   10   11 1
  19   10   14 1
  20   11   12 ar
  21   11   16 ar
  22   12   13 1
  23   12   15 ar
  24   13   14 1
  25   13   33 1
  26   13   34 1
  27   14   26 1
  28   14   27 1
  29   15   35 1
  30   16   36 1
  31   17   18 am
  32   17   24 1
  33   18   25 2
  34   19   20 ar
  35   19   24 ar
  36   20   21 ar
  37   20   28 1
  38   21   22 ar
  39   21   37 1
  40   22   23 ar
  41   22   38 1
  42   23   24 ar
  43   23   39 1
  44   26   40 1
  45   26   41 1
  46   26   42 1
  47   27   43 1
  48   27   44 1
  49   27   45 1

#	End of record

