#	Name: ASD05062004
#	Creating user name:	WinNT
#	Creation time:	15. 06. 2019 20:56

#	Modifying user name:	WinNT
#	Modification time:	15. 06. 2019 20:56

#	Program:	/corina/corina34_cracker 3.40 0067  02.08.2006

@<TRIPOS>MOLECULE
ASD05062004
  47   50    0    0    0
SMALL
NO_CHARGES


@<TRIPOS>ATOM
   1 C1             2.3918    -0.0975    -4.2207 C.ar    
   2 C2             1.3813    -0.5661    -3.3932 C.ar    
   3 C3             1.4722    -0.4272    -2.0248 C.ar    
   4 C4             2.5871     0.1880    -1.4626 C.ar    
   5 C5             3.6092     0.6610    -2.3052 C.ar    
   6 C6             3.4954     0.5097    -3.6917 C.ar    
   7 N7             2.6855     0.3313    -0.0936 N.am    
   8 C8             3.7486     0.9205     0.4798 C.2     
   9 C9             4.8497     1.4364    -0.3320 C.2     
  10 C10            4.7863     1.3100    -1.7193 C.2     
  11 C11            1.6033    -0.1712     0.7563 C.3     
  12 O12            5.7840     1.7736    -2.5035 O.3     
  13 C13            6.0093     2.0811     0.3064 C.2     
  14 C14            5.8885     3.4510     0.8458 C.2     
  15 N15            7.1531     1.4371     0.3965 N.2     
  16 C16            8.2611     2.0773     0.8698 C.ar    
  17 C17            8.9298     1.5839     1.9948 C.ar    
  18 C18           10.0486     2.2340     2.4685 C.ar    
  19 C19           10.5125     3.3774     1.8308 C.ar    
  20 C20            9.8521     3.8716     0.7132 C.ar    
  21 C21            8.7355     3.2260     0.2283 C.ar    
  22 O22            3.7952     1.0265     1.6927 O.2     
  23 N23            5.3417     4.4934     0.2464 N.2     
  24 N24            5.4328     5.5010     1.0437 N.2     
  25 N25            6.0178     5.1439     2.1325 N.2     
  26 N26            6.3131     3.8900     2.0620 N.pl3   
  27 O27           11.6161     4.0151     2.3022 O.3     
  28 C28           12.0392     5.1851     1.5992 C.3     
  29 C29           13.2873     5.7605     2.2715 C.3     
  30 H30            2.3073    -0.2177    -5.2906 H       
  31 H31            0.5147    -1.0440    -3.8256 H       
  32 H32            0.6796    -0.7949    -1.3900 H       
  33 H33            4.2783     0.8713    -4.3419 H       
  34 H34            1.8062    -1.2070     1.0286 H       
  35 H35            1.5387     0.4359     1.6593 H       
  36 H36            0.6597    -0.1164     0.2134 H       
  37 H37            6.4731     2.2514    -2.0219 H       
  38 H38            8.5696     0.6951     2.4916 H       
  39 H39           10.5655     1.8540     3.3373 H       
  40 H40           10.2167     4.7612     0.2212 H       
  41 H41            8.2229     3.6109    -0.6409 H       
  42 H42            6.7585     3.3623     2.7432 H       
  43 H43           12.2702     4.9246     0.5663 H       
  44 H44           11.2417     5.9279     1.6170 H       
  45 H45           13.0562     6.0209     3.3044 H       
  46 H46           14.0848     5.0177     2.2538 H       
  47 H47           13.6100     6.6530     1.7353 H       
@<TRIPOS>BOND
   1    1    2 ar
   2    1    6 ar
   3    1   30 1
   4    2    3 ar
   5    2   31 1
   6    3    4 ar
   7    3   32 1
   8    4    5 ar
   9    4    7 1
  10    5    6 ar
  11    5   10 1
  12    6   33 1
  13    7    8 am
  14    7   11 1
  15    8    9 1
  16    8   22 2
  17    9   10 2
  18    9   13 1
  19   10   12 1
  20   11   34 1
  21   11   35 1
  22   11   36 1
  23   12   37 1
  24   13   14 1
  25   13   15 2
  26   14   23 2
  27   14   26 1
  28   15   16 1
  29   16   17 ar
  30   16   21 ar
  31   17   18 ar
  32   17   38 1
  33   18   19 ar
  34   18   39 1
  35   19   20 ar
  36   19   27 1
  37   20   21 ar
  38   20   40 1
  39   21   41 1
  40   23   24 1
  41   24   25 2
  42   25   26 1
  43   26   42 1
  44   27   28 1
  45   28   29 1
  46   28   43 1
  47   28   44 1
  48   29   45 1
  49   29   46 1
  50   29   47 1

#	End of record

