#	Name: ASD02038768
#	Creating user name:	WinNT
#	Creation time:	15. 06. 2019 20:17

#	Modifying user name:	WinNT
#	Modification time:	15. 06. 2019 20:17

#	Program:	/corina/corina34_cracker 3.40 0067  02.08.2006

@<TRIPOS>MOLECULE
ASD02038768
  39   41    0    0    0
SMALL
NO_CHARGES


@<TRIPOS>ATOM
   1 C1             1.3104    -0.7998    -0.4473 C.2     
   2 C2             0.0612    -0.0227    -0.2983 C.2     
   3 N3            -1.1176    -0.6617    -0.1621 N.am    
   4 C4            -1.1744    -2.1224    -0.2578 C.3     
   5 C5            -1.1398    -2.7182     1.1260 C.ar    
   6 C6            -2.3423     0.1046     0.0815 C.3     
   7 O7             0.0975     1.1923    -0.2987 O.2     
   8 N8             2.5489    -0.2904    -0.5785 N.2     
   9 C9             3.3751    -1.2999    -0.6829 C.2     
  10 N10            2.6478    -2.4304    -0.6163 N.pl3   
  11 N11            1.4082    -2.1110    -0.4693 N.2     
  12 C12           -2.3181    -3.0756     1.7542 C.ar    
  13 C13            0.0706    -2.9124     1.7646 C.ar    
  14 C14            0.1032    -3.4597     3.0338 C.ar    
  15 C15           -1.0744    -3.8130     3.6648 C.ar    
  16 C16           -2.2861    -3.6228     3.0243 C.ar    
  17 C17           -2.1730     0.9528     1.3457 C.3     
  18 C18           -3.4262     1.8085     1.5484 C.3     
  19 O19           -3.6374     2.6226     0.3931 O.3     
  20 C20           -3.8491     1.8829    -0.8112 C.3     
  21 C21           -2.6129     1.0302    -1.1086 C.3     
  22 Cl22          -3.7660    -4.0657     3.8165 Cl      
  23 H23           -2.0968    -2.4182    -0.7577 H       
  24 H24           -0.3194    -2.4826    -0.8299 H       
  25 H25           -3.1808    -0.5796     0.2111 H       
  26 H26            4.4467    -1.2372    -0.8015 H       
  27 H27            2.9982    -3.3335    -0.6666 H       
  28 H28           -3.2636    -2.9272     1.2537 H       
  29 H29            0.9912    -2.6368     1.2718 H       
  30 H30            1.0493    -3.6116     3.5321 H       
  31 H31           -1.0487    -4.2412     4.6559 H       
  32 H32           -2.0350     0.2993     2.2071 H       
  33 H33           -1.3034     1.6008     1.2359 H       
  34 H34           -4.2890     1.1595     1.6985 H       
  35 H35           -3.2938     2.4456     2.4228 H       
  36 H36           -4.7175     1.2349    -0.6919 H       
  37 H37           -4.0214     2.5736    -1.6365 H       
  38 H38           -1.7522     1.6797    -1.2680 H       
  39 H39           -2.7895     0.4320    -2.0025 H       
@<TRIPOS>BOND
   1    1    2 1
   2    1    8 1
   3    1   11 2
   4    2    3 am
   5    2    7 2
   6    3    4 1
   7    3    6 1
   8    4    5 1
   9    4   23 1
  10    4   24 1
  11    5   12 ar
  12    5   13 ar
  13    6   17 1
  14    6   21 1
  15    6   25 1
  16    8    9 2
  17    9   10 1
  18    9   26 1
  19   10   11 1
  20   10   27 1
  21   12   16 ar
  22   12   28 1
  23   13   14 ar
  24   13   29 1
  25   14   15 ar
  26   14   30 1
  27   15   16 ar
  28   15   31 1
  29   16   22 1
  30   17   18 1
  31   17   32 1
  32   17   33 1
  33   18   19 1
  34   18   34 1
  35   18   35 1
  36   19   20 1
  37   20   21 1
  38   20   36 1
  39   20   37 1
  40   21   38 1
  41   21   39 1

#	End of record

