#	Name: ASD03081069
#	Creating user name:	WinNT
#	Creation time:	15. 06. 2019 20:26

#	Modifying user name:	WinNT
#	Modification time:	15. 06. 2019 20:26

#	Program:	/corina/corina34_cracker 3.40 0067  02.08.2006

@<TRIPOS>MOLECULE
ASD03081069
  17   17    0    0    0
SMALL
NO_CHARGES


@<TRIPOS>ATOM
   1 C1            -0.0180     1.4760     0.0102 C.2     
   2 C2             0.0021    -0.0041     0.0020 C.ar    
   3 C3             1.2170    -0.6986    -0.0133 C.ar    
   4 C4             1.1822    -2.0812    -0.0205 C.ar    
   5 C5            -0.0425    -2.7282    -0.0123 C.ar    
   6 N6            -1.1724    -2.0458     0.0022 N.ar    
   7 C7            -1.1888    -0.7286     0.0153 C.ar    
   8 N8             1.0995     2.1417     0.0031 N.2     
   9 N9            -1.2264     2.1520     0.0196 N.pl3   
  10 O10            1.0803     3.5575     0.0108 O.3     
  11 Cl11          -0.0923    -4.4635    -0.0218 Cl      
  12 H12            2.1579    -0.1684    -0.0198 H       
  13 H13            2.1001    -2.6503    -0.0326 H       
  14 H14           -2.1334    -0.2053     0.0320 H       
  15 H15           -2.0598     1.6556     0.0208 H       
  16 H16           -1.2395     3.1219     0.0249 H       
  17 H17            1.9583     3.9628     0.0046 H       
@<TRIPOS>BOND
   1    1    2 1
   2    1    8 2
   3    1    9 1
   4    2    3 ar
   5    2    7 ar
   6    3    4 ar
   7    3   12 1
   8    4    5 ar
   9    4   13 1
  10    5    6 ar
  11    5   11 1
  12    6    7 ar
  13    7   14 1
  14    8   10 1
  15    9   15 1
  16    9   16 1
  17   10   17 1

#	End of record

