#	Name: ASD01917887
#	Creating user name:	WinNT
#	Creation time:	15. 06. 2019 20:10

#	Modifying user name:	WinNT
#	Modification time:	15. 06. 2019 20:10

#	Program:	/corina/corina34_cracker 3.40 0067  02.08.2006

@<TRIPOS>MOLECULE
ASD01917887
  65   67    0    0    0
SMALL
NO_CHARGES


@<TRIPOS>ATOM
   1 C1            -1.5131     2.6824     1.8961 C.2     
   2 C2            -0.8429     1.5448     2.1585 C.2     
   3 C3            -1.2200     0.2028     1.5501 C.3     
   4 C4            -2.6628     0.2695     1.0436 C.3     
   5 N5            -2.8454     1.5083     0.2723 N.am    
   6 C6            -2.7178     2.7891     0.9895 C.3     
   7 C7            -3.1208     1.4728    -1.0465 C.2     
   8 O8            -3.1285     0.4129    -1.6360 O.2     
   9 S9            -0.7582     3.9984     2.7843 S.3     
  10 C10            0.3885     2.9107     3.4353 C.2     
  11 N11            0.1709     1.7217     2.9947 N.2     
  12 C12            1.4940     3.2896     4.3868 C.3     
  13 O13            2.6608     3.6468     3.6433 O.3     
  14 C14            3.7572     4.0169     4.3559 C.ar    
  15 C15            4.9246     4.3764     3.6982 C.ar    
  16 C16            6.0378     4.7522     4.4249 C.ar    
  17 C17            5.9891     4.7703     5.8066 C.ar    
  18 C18            4.8269     4.4120     6.4645 C.ar    
  19 C19            3.7092     4.0413     5.7422 C.ar    
  20 C20           -3.4191     2.7500    -1.7887 C.3     
  21 N21           -4.4919     2.5126    -2.7577 N.am    
  22 C22           -2.1618     3.2180    -2.5242 C.3     
  23 C23           -5.2686     3.5351    -3.1671 C.2     
  24 O24           -6.2545     3.3169    -4.0576 O.3     
  25 O25           -5.0791     4.6539    -2.7325 O.2     
  26 C26           -7.0512     4.4645    -4.4534 C.3     
  27 C27           -6.1450     5.5182    -5.0933 C.3     
  28 C28           -8.1133     4.0243    -5.4629 C.3     
  29 C29           -7.7348     5.0602    -3.2210 C.3     
  30 C30           -1.7954     2.2003    -3.6064 C.3     
  31 C31           -2.4266     4.5784    -3.1722 C.3     
  32 C32           -1.0059     3.3432    -1.5297 C.3     
  33 H33           -0.5519    -0.0209     0.7184 H       
  34 H34           -1.1352    -0.5771     2.3069 H       
  35 H35           -2.8650    -0.5905     0.4052 H       
  36 H36           -3.3473     0.2640     1.8918 H       
  37 H37           -3.6141     2.9726     1.5820 H       
  38 H38           -2.5720     3.6001     0.2760 H       
  39 H39            1.1763     4.1374     4.9938 H       
  40 H40            1.7212     2.4434     5.0352 H       
  41 H41            4.9632     4.3622     2.6190 H       
  42 H42            6.9469     5.0318     3.9134 H       
  43 H43            6.8604     5.0643     6.3729 H       
  44 H44            4.7916     4.4262     7.5438 H       
  45 H45            2.8016     3.7616     6.2565 H       
  46 H46           -3.7324     3.5171    -1.0804 H       
  47 H47           -4.6431     1.6195    -3.1046 H       
  48 H48           -5.6580     5.0938    -5.9712 H       
  49 H49           -6.7431     6.3797    -5.3903 H       
  50 H50           -5.3884     5.8318    -4.3740 H       
  51 H51           -8.7589     3.2736    -5.0071 H       
  52 H52           -8.7114     4.8858    -5.7600 H       
  53 H53           -7.6263     3.5999    -6.3409 H       
  54 H54           -6.9782     5.3738    -2.5018 H       
  55 H55           -8.3329     5.9217    -3.5181 H       
  56 H56           -8.3804     4.3095    -2.7652 H       
  57 H57           -2.6189     2.1111    -4.3149 H       
  58 H58           -0.8997     2.5337    -4.1304 H       
  59 H59           -1.6067     1.2311    -3.1447 H       
  60 H60           -2.6876     5.3035    -2.4013 H       
  61 H61           -1.5309     4.9118    -3.6963 H       
  62 H62           -3.2501     4.4892    -3.8808 H       
  63 H63           -0.8696     2.3949    -1.0098 H       
  64 H64           -0.0916     3.5986    -2.0654 H       
  65 H65           -1.2330     4.1253    -0.8052 H       
@<TRIPOS>BOND
   1    1    2 2
   2    1    9 1
   3    1    6 1
   4    2    3 1
   5    2   11 1
   6    3    4 1
   7    3   33 1
   8    3   34 1
   9    4    5 1
  10    4   35 1
  11    4   36 1
  12    5    6 1
  13    5    7 am
  14    6   37 1
  15    6   38 1
  16    7    8 2
  17    7   20 1
  18    9   10 1
  19   10   11 2
  20   10   12 1
  21   12   13 1
  22   12   39 1
  23   12   40 1
  24   13   14 1
  25   14   15 ar
  26   14   19 ar
  27   15   16 ar
  28   15   41 1
  29   16   17 ar
  30   16   42 1
  31   17   18 ar
  32   17   43 1
  33   18   19 ar
  34   18   44 1
  35   19   45 1
  36   20   21 1
  37   20   22 1
  38   20   46 1
  39   21   23 am
  40   21   47 1
  41   22   30 1
  42   22   31 1
  43   22   32 1
  44   23   24 1
  45   23   25 2
  46   24   26 1
  47   26   27 1
  48   26   28 1
  49   26   29 1
  50   27   48 1
  51   27   49 1
  52   27   50 1
  53   28   51 1
  54   28   52 1
  55   28   53 1
  56   29   54 1
  57   29   55 1
  58   29   56 1
  59   30   57 1
  60   30   58 1
  61   30   59 1
  62   31   60 1
  63   31   61 1
  64   31   62 1
  65   32   63 1
  66   32   64 1
  67   32   65 1

#	End of record

