#	Name: ASD05740261
#	Creating user name:	WinNT
#	Creation time:	15. 06. 2019 21:03

#	Modifying user name:	WinNT
#	Modification time:	15. 06. 2019 21:03

#	Program:	/corina/corina34_cracker 3.40 0067  02.08.2006

@<TRIPOS>MOLECULE
ASD05740261
  58   62    0    0    0
SMALL
NO_CHARGES


@<TRIPOS>ATOM
   1 C1            -0.0135     1.3359    -0.6484 C.3     
   2 N2            -0.0112     0.0331     0.0314 N.3     
   3 C3            -1.3062    -0.4963     0.1066 C.ar    
   4 C4            -2.0199    -0.7518    -1.0556 C.ar    
   5 C5            -3.2972    -1.2734    -0.9818 C.ar    
   6 C6            -3.8675    -1.5427     0.2549 C.ar    
   7 C7            -3.1543    -1.2874     1.4193 C.ar    
   8 C8            -1.8745    -0.7711     1.3461 C.ar    
   9 N9            -5.1623    -2.0714     0.3286 N.pl3   
  10 C10           -5.4858    -2.9695     1.3270 C.ar    
  11 N11           -4.5240    -3.4016     2.1352 N.ar    
  12 N12           -6.7443    -3.3641     1.4467 N.ar    
  13 C13           -7.0937    -4.2266     2.3944 C.ar    
  14 C14           -6.0980    -4.7128     3.2693 C.ar    
  15 C15           -4.7804    -4.2598     3.1046 C.ar    
  16 N16           -8.3952    -4.6405     2.5261 N.am    
  17 C17           -8.7440    -5.5150     3.4893 C.2     
  18 C18           -7.7358    -6.0387     4.4133 C.2     
  19 C19           -6.4345    -5.6314     4.2896 C.2     
  20 C20           -9.4160    -4.1257     1.6100 C.3     
  21 O21           -9.9042    -5.8719     3.5926 O.2     
  22 C22           -9.5142    -5.0421     0.3888 C.3     
  23 C23            0.9031    -0.9043    -0.6357 C.3     
  24 C24            2.3196    -0.3247    -0.6268 C.3     
  25 N25            2.3173     0.9781    -1.3067 N.3     
  26 C26            1.4031     1.9155    -0.6395 C.3     
  27 F27           -1.1802    -0.5225     2.4780 F       
  28 C28           -8.1205    -7.0007     5.4725 C.ar    
  29 C29           -7.7978    -8.3521     5.3420 C.ar    
  30 C30           -8.1587    -9.2438     6.3329 C.ar    
  31 C31           -8.8393    -8.7990     7.4530 C.ar    
  32 C32           -9.1617    -7.4588     7.5871 C.ar    
  33 C33           -8.8012    -6.5581     6.6063 C.ar    
  34 Cl34          -9.2910    -9.9253     8.6944 Cl      
  35 Cl35          -6.9453    -8.9112     3.9369 Cl      
  36 H36           -0.3476     1.2082    -1.6781 H       
  37 H37           -0.6880     2.0163    -0.1286 H       
  38 H38           -1.5770    -0.5426    -2.0181 H       
  39 H39           -3.8524    -1.4714    -1.8867 H       
  40 H40           -3.5982    -1.4966     2.3814 H       
  41 H41           -5.8319    -1.8069    -0.3214 H       
  42 H42           -3.9919    -4.6093     3.7546 H       
  43 H43           -5.6765    -6.0066     4.9612 H       
  44 H44          -10.3791    -4.0948     2.1195 H       
  45 H45           -9.1424    -3.1206     1.2890 H       
  46 H46          -10.2737    -4.6590    -0.2928 H       
  47 H47           -8.5511    -5.0729    -0.1207 H       
  48 H48           -9.7878    -6.0472     0.7098 H       
  49 H49            0.8967    -1.8572    -0.1066 H       
  50 H50            0.5793    -1.0574    -1.6652 H       
  51 H51            2.6537    -0.1970     0.4028 H       
  52 H52            2.9941    -1.0050    -1.1467 H       
  53 H53            3.2499     1.3594    -1.3608 H       
  54 H54            1.4094     2.8684    -1.1686 H       
  55 H55            1.7268     2.0687     0.3900 H       
  56 H56           -7.9098   -10.2901     6.2335 H       
  57 H57           -9.6928    -7.1174     8.4633 H       
  58 H58           -9.0531    -5.5133     6.7124 H       
@<TRIPOS>BOND
   1    1    2 1
   2    1   26 1
   3    1   36 1
   4    1   37 1
   5    2    3 1
   6    2   23 1
   7    3    4 ar
   8    3    8 ar
   9    4    5 ar
  10    4   38 1
  11    5    6 ar
  12    5   39 1
  13    6    7 ar
  14    6    9 1
  15    7    8 ar
  16    7   40 1
  17    8   27 1
  18    9   10 1
  19    9   41 1
  20   10   11 ar
  21   10   12 ar
  22   11   15 ar
  23   12   13 ar
  24   13   14 ar
  25   13   16 1
  26   14   15 ar
  27   14   19 1
  28   15   42 1
  29   16   17 am
  30   16   20 1
  31   17   18 1
  32   17   21 2
  33   18   19 2
  34   18   28 1
  35   19   43 1
  36   20   22 1
  37   20   44 1
  38   20   45 1
  39   22   46 1
  40   22   47 1
  41   22   48 1
  42   23   24 1
  43   23   49 1
  44   23   50 1
  45   24   25 1
  46   24   51 1
  47   24   52 1
  48   25   26 1
  49   25   53 1
  50   26   54 1
  51   26   55 1
  52   28   29 ar
  53   28   33 ar
  54   29   30 ar
  55   29   35 1
  56   30   31 ar
  57   30   56 1
  58   31   32 ar
  59   31   34 1
  60   32   33 ar
  61   32   57 1
  62   33   58 1

#	End of record

