#	Name: ASD01840520
#	Creating user name:	WinNT
#	Creation time:	15. 06. 2019 19:37

#	Modifying user name:	WinNT
#	Modification time:	15. 06. 2019 19:37

#	Program:	/corina/corina34_cracker 3.40 0067  02.08.2006

@<TRIPOS>MOLECULE
ASD01840520
  58   61    0    0    0
SMALL
NO_CHARGES


@<TRIPOS>ATOM
   1 C1            -0.5864    -1.2118     1.0269 C.3     
   2 O2            -0.0602    -0.2644     0.0955 O.3     
   3 C3             0.5665    -0.7613    -1.0015 C.ar    
   4 C4             1.1032     0.1107    -1.9392 C.ar    
   5 C5             1.7401    -0.4061    -3.0541 C.ar    
   6 C6             1.8177    -1.7889    -3.1916 C.ar    
   7 O7             2.4349    -2.3398    -4.2711 O.3     
   8 C8             2.8815    -1.4435    -5.2905 C.3     
   9 C9             4.2702    -0.9090    -4.9294 C.3     
  10 C10            4.7689     0.0022    -6.0533 C.3     
  11 N11            4.8278    -0.7556    -7.3098 N.3     
  12 C12            3.4975    -1.2387    -7.7014 C.3     
  13 C13            2.9609    -2.1869    -6.6267 C.3     
  14 C14            5.3981     0.0014    -8.3198 C.ar    
  15 N15            4.7890     1.0999    -8.7527 N.ar    
  16 N16            5.2810     1.8315    -9.6855 N.ar    
  17 C17            6.4316     1.5383   -10.2794 C.ar    
  18 C18            7.1459     0.3984    -9.8892 C.ar    
  19 C19            6.6166    -0.3855    -8.8803 C.ar    
  20 C20            7.3314    -1.6238    -8.4040 C.3     
  21 C21            6.9572     2.4123   -11.3500 C.2     
  22 O22            8.0109     2.1422   -11.8925 O.2     
  23 N23            6.2681     3.5084   -11.7242 N.am    
  24 C24            6.7889     4.3744   -12.7849 C.3     
  25 C25            5.8370     5.5207   -13.0102 C.ar    
  26 C26            4.8011     5.4136   -13.9256 C.ar    
  27 C27            3.9478     6.4858   -14.1055 C.ar    
  28 N28            4.1108     7.6001   -13.4193 N.ar    
  29 C29            5.0846     7.7373   -12.5408 C.ar    
  30 C30            5.9728     6.7055   -12.3030 C.ar    
  31 C31            1.2588    -2.5973    -2.2151 C.ar    
  32 N32            0.6636    -2.0702    -1.1621 N.ar    
  33 H33           -1.3238    -1.8407     0.5280 H       
  34 H34            0.2230    -1.8341     1.4087 H       
  35 H35           -1.0598    -0.6834     1.8544 H       
  36 H36            1.0244     1.1788    -1.8006 H       
  37 H37            2.1666     0.2483    -3.7999 H       
  38 H38            2.1815    -0.6124    -5.3771 H       
  39 H39            4.2117    -0.3421    -4.0003 H       
  40 H40            4.9601    -1.7436    -4.8044 H       
  41 H41            4.0859     0.8438    -6.1685 H       
  42 H42            5.7635     0.3730    -5.8059 H       
  43 H43            2.8205    -0.3913    -7.8089 H       
  44 H44            3.5687    -1.7691    -8.6510 H       
  45 H45            3.6302    -3.0416    -6.5284 H       
  46 H46            1.9669    -2.5331    -6.9102 H       
  47 H47            8.0837     0.1416   -10.3592 H       
  48 H48            7.0702    -2.4641    -9.0471 H       
  49 H49            8.4082    -1.4587    -8.4412 H       
  50 H50            7.0328    -1.8440    -7.3791 H       
  51 H51            5.4273     3.7239   -11.2912 H       
  52 H52            7.7634     4.7638   -12.4903 H       
  53 H53            6.8904     3.8000   -13.7057 H       
  54 H54            4.6629     4.5039   -14.4910 H       
  55 H55            3.1384     6.4104   -14.8166 H       
  56 H56            5.1867     8.6653   -11.9978 H       
  57 H57            6.7653     6.8222   -11.5786 H       
  58 H58            1.3149    -3.6713    -2.3146 H       
@<TRIPOS>BOND
   1    1    2 1
   2    1   33 1
   3    1   34 1
   4    1   35 1
   5    2    3 1
   6    3   32 ar
   7    3    4 ar
   8    4    5 ar
   9    4   36 1
  10    5    6 ar
  11    5   37 1
  12    6    7 1
  13    6   31 ar
  14    7    8 1
  15    8   13 1
  16    8    9 1
  17    8   38 1
  18    9   10 1
  19    9   39 1
  20    9   40 1
  21   10   11 1
  22   10   41 1
  23   10   42 1
  24   11   12 1
  25   11   14 1
  26   12   13 1
  27   12   43 1
  28   12   44 1
  29   13   45 1
  30   13   46 1
  31   14   19 ar
  32   14   15 ar
  33   15   16 ar
  34   16   17 ar
  35   17   18 ar
  36   17   21 1
  37   18   19 ar
  38   18   47 1
  39   19   20 1
  40   20   48 1
  41   20   49 1
  42   20   50 1
  43   21   22 2
  44   21   23 am
  45   23   24 1
  46   23   51 1
  47   24   25 1
  48   24   52 1
  49   24   53 1
  50   25   30 ar
  51   25   26 ar
  52   26   27 ar
  53   26   54 1
  54   27   28 ar
  55   27   55 1
  56   28   29 ar
  57   29   30 ar
  58   29   56 1
  59   30   57 1
  60   31   32 ar
  61   31   58 1

#	End of record

