#	Name: ASD08070159
#	Creating user name:	WinNT
#	Creation time:	15. 06. 2019 21:14

#	Modifying user name:	WinNT
#	Modification time:	15. 06. 2019 21:14

#	Program:	/corina/corina34_cracker 3.40 0067  02.08.2006

@<TRIPOS>MOLECULE
ASD08070159
  38   40    0    0    0
SMALL
NO_CHARGES


@<TRIPOS>ATOM
   1 C1            -0.0167     1.3808     0.0096 C.ar    
   2 C2             0.0021    -0.0041     0.0020 C.ar    
   3 C3             1.2065    -0.6871    -0.0127 C.ar    
   4 C4             2.4059     0.0181    -0.0204 C.ar    
   5 C5             2.3866     1.4181    -0.0132 C.ar    
   6 C6             1.1628     2.0930     0.0022 C.ar    
   7 N7             3.6294     3.5247    -0.0138 N.am    
   8 C8             3.6518     2.1771    -0.0208 C.2     
   9 C9             5.2594     3.3345    -2.2833 C.ar    
  10 C10            5.3626     4.4347    -1.4415 C.ar    
  11 C11            4.8856     4.2783    -0.0213 C.3     
  12 C12            5.6851     3.4117    -3.5930 C.ar    
  13 C13            6.2210     4.5927    -4.0722 C.ar    
  14 C14            6.3233     5.6866    -3.2382 C.ar    
  15 C15            5.8911     5.6122    -1.9201 C.ar    
  16 C16            6.0177     6.8489    -1.0696 C.3     
  17 C17            5.9162     6.4943     0.4125 C.3     
  18 C18            4.6572     5.6446     0.6218 C.3     
  19 O19            4.7148     1.5869    -0.0333 O.2     
  20 O20            3.5887    -0.6478    -0.0345 O.3     
  21 O21            1.2171    -2.0470    -0.0192 O.3     
  22 H22           -0.9608     1.9052     0.0170 H       
  23 H23           -0.9274    -0.5540     0.0080 H       
  24 H24            1.1417     3.1728     0.0075 H       
  25 H25            2.7814     3.9955    -0.0038 H       
  26 H26            4.8465     2.4098    -1.9080 H       
  27 H27            5.6354     3.7327     0.5517 H       
  28 H28            5.6004     2.5525    -4.2419 H       
  29 H29            6.5587     4.6584    -5.0960 H       
  30 H30            6.7432     6.6084    -3.6130 H       
  31 H31            6.9819     7.3198    -1.2612 H       
  32 H32            5.2204     7.5458    -1.3278 H       
  33 H33            6.7963     5.9271     0.7153 H       
  34 H34            5.8456     7.4069     1.0043 H       
  35 H35            3.8028     6.1328     0.1531 H       
  36 H36            4.4705     5.5216     1.6887 H       
  37 H37            3.9233    -0.8366    -0.9219 H       
  38 H38            1.2117    -2.4362    -0.9045 H       
@<TRIPOS>BOND
   1    1    2 ar
   2    1    6 ar
   3    1   22 1
   4    2    3 ar
   5    2   23 1
   6    3    4 ar
   7    3   21 1
   8    4    5 ar
   9    4   20 1
  10    5    6 ar
  11    5    8 1
  12    6   24 1
  13    7    8 am
  14    7   11 1
  15    7   25 1
  16    8   19 2
  17    9   10 ar
  18    9   12 ar
  19    9   26 1
  20   10   11 1
  21   10   15 ar
  22   11   18 1
  23   11   27 1
  24   12   13 ar
  25   12   28 1
  26   13   14 ar
  27   13   29 1
  28   14   15 ar
  29   14   30 1
  30   15   16 1
  31   16   17 1
  32   16   31 1
  33   16   32 1
  34   17   18 1
  35   17   33 1
  36   17   34 1
  37   18   35 1
  38   18   36 1
  39   20   37 1
  40   21   38 1

#	End of record

