#	Name: ASD01908011
#	Creating user name:	WinNT
#	Creation time:	15. 06. 2019 19:54

#	Modifying user name:	WinNT
#	Modification time:	15. 06. 2019 19:54

#	Program:	/corina/corina34_cracker 3.40 0067  02.08.2006

@<TRIPOS>MOLECULE
ASD01908011
  34   35    0    0    0
SMALL
NO_CHARGES


@<TRIPOS>ATOM
   1 C1            -0.0184     1.5028     0.0103 C.2     
   2 C2             0.0021    -0.0041     0.0020 C.3     
   3 N3             3.3827     2.7438    -0.0142 N.pl3   
   4 N4             2.6561     3.9393    -0.0014 N.2     
   5 C5             1.3823     3.6619     0.0085 C.2     
   6 C6             1.2417     2.2533     0.0023 C.2     
   7 C7             2.5185     1.7180    -0.0119 C.2     
   8 C8             0.2572     4.6644     0.0239 C.3     
   9 C9             4.8433     2.6312    -0.0334 C.3     
  10 C10            5.3918     3.4090    -1.2018 C.ar    
  11 C11            5.7273     4.7414    -1.0475 C.ar    
  12 C12            6.2303     5.4566    -2.1170 C.ar    
  13 C13            6.3987     4.8368    -3.3467 C.ar    
  14 C14            6.0613     3.4997    -3.4990 C.ar    
  15 C15            5.5640     2.7874    -2.4248 C.ar    
  16 O16            6.8929     5.5383    -4.4005 O.3     
  17 C17            7.0395     4.8357    -5.6362 C.3     
  18 Br18          -1.8423    -0.6846     0.0160 Br      
  19 O19           -1.0771     2.0950     0.0185 O.2     
  20 H20            0.5123    -0.3556    -0.8948 H       
  21 H21            0.5293    -0.3651     0.8851 H       
  22 H22            2.7719     0.6682    -0.0201 H       
  23 H23           -0.0235     4.9113    -1.0000 H       
  24 H24           -0.6014     4.2391     0.5436 H       
  25 H25            0.5828     5.5680     0.5393 H       
  26 H26            5.2509     3.0332     0.8942 H       
  27 H27            5.1256     1.5828    -0.1301 H       
  28 H28            5.5957     5.2235    -0.0901 H       
  29 H29            6.4919     6.4974    -1.9961 H       
  30 H30            6.1914     3.0150    -4.4553 H       
  31 H31            5.3056     1.7453    -2.5416 H       
  32 H32            7.7205     3.9959    -5.4981 H       
  33 H33            6.0672     4.4652    -5.9611 H       
  34 H34            7.4425     5.5098    -6.3919 H       
@<TRIPOS>BOND
   1    1    2 1
   2    1    6 1
   3    1   19 2
   4    2   18 1
   5    2   20 1
   6    2   21 1
   7    3    4 1
   8    3    7 1
   9    3    9 1
  10    4    5 2
  11    5    6 1
  12    5    8 1
  13    6    7 2
  14    7   22 1
  15    8   23 1
  16    8   24 1
  17    8   25 1
  18    9   10 1
  19    9   26 1
  20    9   27 1
  21   10   11 ar
  22   10   15 ar
  23   11   12 ar
  24   11   28 1
  25   12   13 ar
  26   12   29 1
  27   13   14 ar
  28   13   16 1
  29   14   15 ar
  30   14   30 1
  31   15   31 1
  32   16   17 1
  33   17   32 1
  34   17   33 1
  35   17   34 1

#	End of record

