#	Name: ASD01815904
#	Creating user name:	WinNT
#	Creation time:	15. 06. 2019 19:34

#	Modifying user name:	WinNT
#	Modification time:	15. 06. 2019 19:34

#	Program:	/corina/corina34_cracker 3.40 0067  02.08.2006

@<TRIPOS>MOLECULE
ASD01815904
  53   58    0    0    0
SMALL
NO_CHARGES


@<TRIPOS>ATOM
   1 C1             0.1064     1.4783     0.3814 C.ar    
   2 C2             0.0862     0.0932     0.3727 C.ar    
   3 C3             1.2565    -0.6271     0.2339 C.ar    
   4 C4             2.4729     0.0371     0.1005 C.ar    
   5 C5             2.4904     1.4412     0.1092 C.ar    
   6 C6             1.3032     2.1568     0.2504 C.ar    
   7 N7             3.6499    -0.6795    -0.0385 N.pl3   
   8 C8             4.8508    -0.0941    -0.1703 C.2     
   9 C9             4.9913     1.2716    -0.1763 C.2     
  10 C10            3.7897     2.1249    -0.0335 C.2     
  11 C11            6.1080     2.2037    -0.2969 C.2     
  12 N12            5.5736     3.4421    -0.2277 N.am    
  13 N13            4.1875     3.3642    -0.0704 N.2     
  14 C14            6.3024     4.6308    -0.3025 C.ar    
  15 O15            7.2871     1.9210    -0.4324 O.2     
  16 C16            3.5814    -2.1429    -0.0413 C.3     
  17 C17            3.4351    -2.6362    -1.4578 C.ar    
  18 C18            4.5546    -2.7853    -2.2556 C.ar    
  19 C19            4.4236    -3.2368    -3.5543 C.ar    
  20 C20            3.1664    -3.5414    -4.0584 C.ar    
  21 C21            2.0442    -3.3910    -3.2548 C.ar    
  22 C22            2.1821    -2.9441    -1.9552 C.ar    
  23 N23            3.0302    -3.9993    -5.3763 N.pl3   
  24 C24            1.8704    -4.3297    -5.9882 C.2     
  25 F25            1.3219     3.5076     0.2581 F       
  26 F26            1.2210    -1.9776     0.2281 F       
  27 C27            2.1672    -4.7219    -7.2489 C.2     
  28 C28            3.5535    -4.6286    -7.4139 C.2     
  29 N29            4.0708    -4.1900    -6.2946 N.2     
  30 C30            6.2057     5.5932     0.7022 C.ar    
  31 C31            7.1491     4.8830    -1.3796 C.ar    
  32 N32            7.7302     6.9610    -0.4455 N.ar    
  33 C33            6.9417     6.7542     0.5928 C.ar    
  34 C34            7.8536     6.0722    -1.4157 C.ar    
  35 F35            8.6779     6.3285    -2.4550 F       
  36 C36            5.3083     5.3676     1.8917 C.3     
  37 H37           -0.8163     2.0295     0.4865 H       
  38 H38           -0.8538    -0.4285     0.4757 H       
  39 H39            5.7293    -0.7136    -0.2740 H       
  40 H40            4.4944    -2.5503     0.3928 H       
  41 H41            2.7231    -2.4676     0.5469 H       
  42 H42            5.5323    -2.5482    -1.8629 H       
  43 H43            5.2983    -3.3524    -4.1772 H       
  44 H44            1.0649    -3.6268    -3.6443 H       
  45 H45            1.3096    -2.8270    -1.3296 H       
  46 H46            0.8845    -4.2885    -5.5494 H       
  47 H47            1.4591    -5.0492    -7.9957 H       
  48 H48            4.1018    -4.8722    -8.3119 H       
  49 H49            7.2539     4.1599    -2.1749 H       
  50 H50            6.8686     7.5063     1.3644 H       
  51 H51            5.8697     4.8671     2.6806 H       
  52 H52            4.9429     6.3269     2.2583 H       
  53 H53            4.4632     4.7457     1.5965 H       
@<TRIPOS>BOND
   1    1    2 ar
   2    1    6 ar
   3    1   37 1
   4    2    3 ar
   5    2   38 1
   6    3    4 ar
   7    3   26 1
   8    4    5 ar
   9    4    7 1
  10    5    6 ar
  11    5   10 1
  12    6   25 1
  13    7    8 1
  14    7   16 1
  15    8    9 2
  16    8   39 1
  17    9   10 1
  18    9   11 1
  19   10   13 2
  20   11   12 am
  21   11   15 2
  22   12   13 1
  23   12   14 1
  24   14   30 ar
  25   14   31 ar
  26   16   17 1
  27   16   40 1
  28   16   41 1
  29   17   18 ar
  30   17   22 ar
  31   18   19 ar
  32   18   42 1
  33   19   20 ar
  34   19   43 1
  35   20   21 ar
  36   20   23 1
  37   21   22 ar
  38   21   44 1
  39   22   45 1
  40   23   24 1
  41   23   29 1
  42   24   27 2
  43   24   46 1
  44   27   28 1
  45   27   47 1
  46   28   29 2
  47   28   48 1
  48   30   36 1
  49   30   33 ar
  50   31   34 ar
  51   31   49 1
  52   32   33 ar
  53   32   34 ar
  54   33   50 1
  55   34   35 1
  56   36   51 1
  57   36   52 1
  58   36   53 1

#	End of record

