#	Name: ASD00069073
#	Creating user name:	WinNT
#	Creation time:	15. 06. 2019 18:29

#	Modifying user name:	WinNT
#	Modification time:	15. 06. 2019 18:29

#	Program:	/corina/corina34_cracker 3.40 0067  02.08.2006

@<TRIPOS>MOLECULE
ASD00069073
  16   16    0    0    0
SMALL
NO_CHARGES


@<TRIPOS>ATOM
   1 N1            -0.0169     1.3968     0.0097 N.pl3   
   2 N2             0.0021    -0.0041     0.0020 N.2     
   3 C3             1.1746     2.1065     0.0022 C.ar    
   4 C4            -1.0718    -0.6437     0.0088 C.1     
   5 O5            -2.1097    -1.2619     0.0154 O.2     
   6 C6             2.3910     1.4288    -0.0131 C.ar    
   7 C7             3.5747     2.1385    -0.0211 C.ar    
   8 C8             3.5552     3.5240    -0.0135 C.ar    
   9 C9             2.3476     4.2041     0.0017 C.ar    
  10 C10            1.1580     3.5020     0.0040 C.ar    
  11 F11            4.7167     4.2140    -0.0204 F       
  12 F12           -0.0191     4.1649     0.0183 F       
  13 H13           -0.8635     1.8703     0.0163 H       
  14 H14            2.4081     0.3490    -0.0183 H       
  15 H15            4.5181     1.6128    -0.0329 H       
  16 H16            2.3367     5.2840     0.0080 H       
@<TRIPOS>BOND
   1    1    2 1
   2    1    3 1
   3    1   13 1
   4    2    4 2
   5    3    6 ar
   6    3   10 ar
   7    4    5 2
   8    6    7 ar
   9    6   14 1
  10    7    8 ar
  11    7   15 1
  12    8    9 ar
  13    8   11 1
  14    9   10 ar
  15    9   16 1
  16   10   12 1

#	End of record

