#	Name: ASD08150631
#	Creating user name:	WinNT
#	Creation time:	15. 06. 2019 21:16

#	Modifying user name:	WinNT
#	Modification time:	15. 06. 2019 21:16

#	Program:	/corina/corina34_cracker 3.40 0067  02.08.2006

@<TRIPOS>MOLECULE
ASD08150631
  62   67    0    0    0
SMALL
NO_CHARGES


@<TRIPOS>ATOM
   1 N1             4.4378    16.3473    -8.9253 N.am    
   2 C2             4.3294    16.6645   -10.2301 C.2     
   3 C3             5.2392    17.5542   -10.8365 C.2     
   4 C4             6.2432    18.1061   -10.1085 C.2     
   5 C5             6.3602    17.7745    -8.7356 C.ar    
   6 C6             7.3827    18.3190    -7.9352 C.ar    
   7 N7             7.4882    18.0114    -6.6689 N.ar    
   8 C8             6.6387    17.1687    -6.0619 C.ar    
   9 C9             5.5790    16.5739    -6.7900 C.ar    
  10 C10            5.4375    16.8857    -8.1626 C.ar    
  11 C11            4.6997    15.6963    -6.1482 C.ar    
  12 C12            4.8754    15.4173    -4.8026 C.ar    
  13 C13            5.9263    16.0097    -4.0887 C.ar    
  14 C14            6.7894    16.8656    -4.6988 C.ar    
  15 O15            3.4325    16.1752   -10.8955 O.2     
  16 C16            3.9468    14.4878    -4.1141 C.ar    
  17 C17            3.5173    15.4650    -8.3446 C.ar    
  18 C18            2.3131    15.9462    -7.8466 C.ar    
  19 C19            1.4062    15.0772    -7.2750 C.ar    
  20 C20            1.6975    13.7208    -7.1976 C.ar    
  21 C21            2.9017    13.2398    -7.6956 C.ar    
  22 C22            3.8064    14.1086    -8.2721 C.ar    
  23 N23            0.7791    12.8405    -6.6181 N.3     
  24 C24            4.3592    13.7868    -2.9758 C.ar    
  25 C25            3.4586    12.9326    -2.3684 C.ar    
  26 C26            2.1830    12.7987    -2.9036 C.ar    
  27 N27            1.8241    13.4760    -3.9821 N.ar    
  28 C28            2.6503    14.3049    -4.5879 C.ar    
  29 C29            0.2440    11.9044    -7.6175 C.3     
  30 C30           -0.3093    13.5747    -5.9567 C.3     
  31 C31           -1.2573    12.5767    -5.2865 C.3     
  32 O32           -1.7430    11.6559    -6.2671 O.3     
  33 C33           -0.7095    10.9231    -6.9306 C.3     
  34 C34            3.2179    11.7688    -7.6118 C.3     
  35 F35            4.6029    11.5940    -7.5195 F       
  36 F36            2.6027    11.2232    -6.4800 F       
  37 F37            2.7418    11.1234    -8.7581 F       
  38 O38            1.2939    11.9619    -2.3124 O.3     
  39 C39           -0.0417    12.4436    -2.1506 C.3     
  40 H40            5.1373    17.7973   -11.8839 H       
  41 H41            6.9431    18.7877   -10.5689 H       
  42 H42            8.0931    19.0030    -8.3755 H       
  43 H43            3.8895    15.2397    -6.6973 H       
  44 H44            6.0521    15.7837    -3.0401 H       
  45 H45            7.5937    17.3128    -4.1336 H       
  46 H46            2.0868    17.0005    -7.9064 H       
  47 H47            0.4701    15.4514    -6.8875 H       
  48 H48            4.7407    13.7340    -8.6634 H       
  49 H49            5.3571    13.9099    -2.5816 H       
  50 H50            3.7429    12.3752    -1.4882 H       
  51 H51            2.3216    14.8406    -5.4662 H       
  52 H52           -0.2958    12.4600    -8.3843 H       
  53 H53            1.0649    11.3533    -8.0763 H       
  54 H54            0.1077    14.2429    -5.2033 H       
  55 H55           -0.8580    14.1570    -6.6970 H       
  56 H56           -0.7217    12.0316    -4.5091 H       
  57 H57           -2.0965    13.1129    -4.8435 H       
  58 H58           -1.1526    10.2635    -7.6767 H       
  59 H59           -0.1580    10.3300    -6.2011 H       
  60 H60           -0.5653    12.3902    -3.1051 H       
  61 H61           -0.5627    11.8301    -1.4155 H       
  62 H62           -0.0159    13.4780    -1.8077 H       
@<TRIPOS>BOND
   1    1    2 am
   2    1   10 1
   3    1   17 1
   4    2    3 1
   5    2   15 2
   6    3    4 2
   7    3   40 1
   8    4    5 1
   9    4   41 1
  10    5    6 ar
  11    5   10 ar
  12    6    7 ar
  13    6   42 1
  14    7    8 ar
  15    8    9 ar
  16    8   14 ar
  17    9   10 ar
  18    9   11 ar
  19   11   12 ar
  20   11   43 1
  21   12   13 ar
  22   12   16 1
  23   13   14 ar
  24   13   44 1
  25   14   45 1
  26   16   24 ar
  27   16   28 ar
  28   17   18 ar
  29   17   22 ar
  30   18   19 ar
  31   18   46 1
  32   19   20 ar
  33   19   47 1
  34   20   21 ar
  35   20   23 1
  36   21   22 ar
  37   21   34 1
  38   22   48 1
  39   23   29 1
  40   23   30 1
  41   24   25 ar
  42   24   49 1
  43   25   26 ar
  44   25   50 1
  45   26   27 ar
  46   26   38 1
  47   27   28 ar
  48   28   51 1
  49   29   33 1
  50   29   52 1
  51   29   53 1
  52   30   31 1
  53   30   54 1
  54   30   55 1
  55   31   32 1
  56   31   56 1
  57   31   57 1
  58   32   33 1
  59   33   58 1
  60   33   59 1
  61   34   35 1
  62   34   36 1
  63   34   37 1
  64   38   39 1
  65   39   60 1
  66   39   61 1
  67   39   62 1

#	End of record

