#	Name: ASD01811900
#	Creating user name:	WinNT
#	Creation time:	15. 06. 2019 19:27

#	Modifying user name:	WinNT
#	Modification time:	15. 06. 2019 19:27

#	Program:	/corina/corina34_cracker 3.40 0067  02.08.2006

@<TRIPOS>MOLECULE
ASD01811900
  64   68    0    0    0
SMALL
NO_CHARGES


@<TRIPOS>ATOM
   1 C1            -0.4840     4.7020    -1.6540 C.ar    
   2 C2            -0.9944     3.4645    -1.3206 C.ar    
   3 C3            -0.1575     2.4697    -0.8451 C.ar    
   4 C4             1.1961     2.7065    -0.7001 C.ar    
   5 C5             1.7240     3.9444    -1.0313 C.ar    
   6 C6             0.8804     4.9528    -1.5125 C.ar    
   7 C7             1.4340     6.2785    -1.8691 C.2     
   8 C8             1.2359     7.3723    -1.0389 C.2     
   9 C9             1.7740     8.6123    -1.4074 C.2     
  10 N10            2.4715     8.7338    -2.5518 N.am    
  11 C11            2.6705     7.6678    -3.3712 C.2     
  12 C12            2.1784     6.4503    -3.0586 C.2     
  13 C13            3.0259    10.0385    -2.9214 C.3     
  14 C14            2.4408    10.4794    -4.2645 C.3     
  15 C15            3.0198    11.8420    -4.6505 C.3     
  16 C16            4.5415    11.7349    -4.7676 C.3     
  17 C17            5.1267    11.2940    -3.4245 C.3     
  18 C18            4.5477     9.9314    -3.0385 C.3     
  19 O19            3.0537     4.1784    -0.8889 O.3     
  20 O20            1.6093     9.5855    -0.6885 O.2     
  21 O21            1.0195    10.5795    -4.1551 O.3     
  22 C22            3.8521     3.1028    -0.3915 C.3     
  23 C23            5.2901     3.5445    -0.3013 C.ar    
  24 C24            5.7617     4.1265     0.8609 C.ar    
  25 C25            7.0794     4.5323     0.9461 C.ar    
  26 C26            7.9300     4.3551    -0.1357 C.ar    
  27 C27            7.4543     3.7704    -1.3007 C.ar    
  28 C28            6.1370     3.3620    -1.3790 C.ar    
  29 O29            9.2265     4.7538    -0.0546 O.3     
  30 C30            9.6765     5.2218     1.1391 C.ar    
  31 C31           10.2067     4.3445     2.0743 C.ar    
  32 C32           10.6639     4.8229     3.2869 C.ar    
  33 C33           10.5932     6.1746     3.5693 C.ar    
  34 C34           10.0653     7.0510     2.6391 C.ar    
  35 C35            9.6120     6.5785     1.4227 C.ar    
  36 H36           -1.1396     5.4742    -2.0285 H       
  37 H37           -2.0512     3.2712    -1.4305 H       
  38 H38           -0.5646     1.5036    -0.5858 H       
  39 H39            1.8433     1.9261    -0.3279 H       
  40 H40            0.6747     7.2695    -0.1219 H       
  41 H41            3.2343     7.7957    -4.2835 H       
  42 H42            2.3489     5.6114    -3.7171 H       
  43 H43            2.7712    10.7715    -2.1559 H       
  44 H44            2.6955     9.7464    -5.0300 H       
  45 H45            2.6029    12.1561    -5.6074 H       
  46 H46            2.7650    12.5750    -3.8850 H       
  47 H47            4.7963    11.0018    -5.5331 H       
  48 H48            4.9540    12.7056    -5.0426 H       
  49 H49            6.2108    11.2176    -3.5079 H       
  50 H50            4.8719    12.0270    -2.6590 H       
  51 H51            4.9646     9.6173    -2.0816 H       
  52 H52            4.8024     9.1984    -3.8040 H       
  53 H53            0.5806    10.8551    -4.9715 H       
  54 H54            3.4978     2.8148     0.5983 H       
  55 H55            3.7755     2.2508    -1.0670 H       
  56 H56            5.0993     4.2642     1.7027 H       
  57 H57            7.4471     4.9874     1.8539 H       
  58 H58            8.1143     3.6314    -2.1442 H       
  59 H59            5.7673     2.9032    -2.2841 H       
  60 H60           10.2615     3.2885     1.8546 H       
  61 H61           11.0766     4.1404     4.0151 H       
  62 H62           10.9505     6.5465     4.5181 H       
  63 H63           10.0109     8.1063     2.8622 H       
  64 H64            9.2035     7.2640     0.6949 H       
@<TRIPOS>BOND
   1    1    2 ar
   2    1    6 ar
   3    1   36 1
   4    2    3 ar
   5    2   37 1
   6    3    4 ar
   7    3   38 1
   8    4    5 ar
   9    4   39 1
  10    5    6 ar
  11    5   19 1
  12    6    7 1
  13    7    8 2
  14    7   12 1
  15    8    9 1
  16    8   40 1
  17    9   10 am
  18    9   20 2
  19   10   11 1
  20   10   13 1
  21   11   12 2
  22   11   41 1
  23   12   42 1
  24   13   14 1
  25   13   18 1
  26   13   43 1
  27   14   15 1
  28   14   21 1
  29   14   44 1
  30   15   16 1
  31   15   45 1
  32   15   46 1
  33   16   17 1
  34   16   47 1
  35   16   48 1
  36   17   18 1
  37   17   49 1
  38   17   50 1
  39   18   51 1
  40   18   52 1
  41   19   22 1
  42   21   53 1
  43   22   23 1
  44   22   54 1
  45   22   55 1
  46   23   24 ar
  47   23   28 ar
  48   24   25 ar
  49   24   56 1
  50   25   26 ar
  51   25   57 1
  52   26   27 ar
  53   26   29 1
  54   27   28 ar
  55   27   58 1
  56   28   59 1
  57   29   30 1
  58   30   31 ar
  59   30   35 ar
  60   31   32 ar
  61   31   60 1
  62   32   33 ar
  63   32   61 1
  64   33   34 ar
  65   33   62 1
  66   34   35 ar
  67   34   63 1
  68   35   64 1

#	End of record

