#	Name: ASD01885280
#	Creating user name:	WinNT
#	Creation time:	15. 06. 2019 19:49

#	Modifying user name:	WinNT
#	Modification time:	15. 06. 2019 19:49

#	Program:	/corina/corina34_cracker 3.40 0067  02.08.2006

@<TRIPOS>MOLECULE
ASD01885280
  47   50    0    0    0
SMALL
NO_CHARGES


@<TRIPOS>ATOM
   1 N1            -0.0158     1.3154     0.0093 N.ar    
   2 C2             0.0021    -0.0041     0.0020 C.ar    
   3 C3             1.2031    -0.7223    -0.0133 C.ar    
   4 C4             2.4099    -0.0364    -0.0211 C.ar    
   5 C5             2.3677     1.3809    -0.0131 C.ar    
   6 C6             3.5428     2.1430    -0.0211 C.ar    
   7 C7             3.4646     3.5036    -0.0141 C.ar    
   8 C8             2.2295     4.1483     0.0015 C.ar    
   9 C9             1.0680     3.4397     0.0102 C.ar    
  10 C10            1.1083     2.0324     0.0024 C.ar    
  11 C11           -1.2827    -0.7444     0.0108 C.2     
  12 O12           -1.2838    -1.9594     0.0043 O.2     
  13 N13           -2.4492    -0.0695     0.0260 N.am    
  14 C14            2.1793     5.6545     0.0094 C.3     
  15 N15            2.1491     6.1506    -1.3730 N.3     
  16 C16            1.8622     7.5920    -1.4092 C.3     
  17 C17            1.8991     8.0779    -2.8605 C.3     
  18 O18            0.9657     7.3204    -3.6354 O.3     
  19 C19            1.2159     5.9124    -3.6229 C.3     
  20 C20            1.1721     5.4046    -2.1792 C.3     
  21 C21            3.7006    -0.7619    -0.0368 C.ar    
  22 C22            3.9391    -1.7858     0.8804 C.ar    
  23 C23            5.1429    -2.4585     0.8617 C.ar    
  24 C24            6.1150    -2.1186    -0.0659 C.ar    
  25 C25            5.8829    -1.1023    -0.9791 C.ar    
  26 C26            4.6799    -0.4277    -0.9726 C.ar    
  27 F27            7.2930    -2.7800    -0.0796 F       
  28 H28            1.1911    -1.8022    -0.0186 H       
  29 H29            4.5062     1.6549    -0.0325 H       
  30 H30            4.3717     4.0897    -0.0203 H       
  31 H31            0.1188     3.9548     0.0222 H       
  32 H32           -2.4484     0.9005     0.0312 H       
  33 H33           -3.2897    -0.5538     0.0317 H       
  34 H34            1.2830     5.9854     0.5339 H       
  35 H35            3.0619     6.0447     0.5163 H       
  36 H36            0.8738     7.7771    -0.9884 H       
  37 H37            2.6124     8.1272    -0.8270 H       
  38 H38            1.6308     9.1338    -2.8978 H       
  39 H39            2.9023     7.9421    -3.2644 H       
  40 H40            0.4535     5.4020    -4.2115 H       
  41 H41            2.1993     5.7136    -4.0490 H       
  42 H42            1.4185     4.3430    -2.1592 H       
  43 H43            0.1727     5.5547    -1.7708 H       
  44 H44            3.1825    -2.0509     1.6040 H       
  45 H45            5.3285    -3.2512     1.5713 H       
  46 H46            6.6436    -0.8409    -1.6997 H       
  47 H47            4.4981     0.3609    -1.6877 H       
@<TRIPOS>BOND
   1    1    2 ar
   2    1   10 ar
   3    2    3 ar
   4    2   11 1
   5    3    4 ar
   6    3   28 1
   7    4    5 ar
   8    4   21 1
   9    5    6 ar
  10    5   10 ar
  11    6    7 ar
  12    6   29 1
  13    7    8 ar
  14    7   30 1
  15    8    9 ar
  16    8   14 1
  17    9   10 ar
  18    9   31 1
  19   11   12 2
  20   11   13 am
  21   13   32 1
  22   13   33 1
  23   14   15 1
  24   14   34 1
  25   14   35 1
  26   15   16 1
  27   15   20 1
  28   16   17 1
  29   16   36 1
  30   16   37 1
  31   17   18 1
  32   17   38 1
  33   17   39 1
  34   18   19 1
  35   19   20 1
  36   19   40 1
  37   19   41 1
  38   20   42 1
  39   20   43 1
  40   21   22 ar
  41   21   26 ar
  42   22   23 ar
  43   22   44 1
  44   23   24 ar
  45   23   45 1
  46   24   25 ar
  47   24   27 1
  48   25   26 ar
  49   25   46 1
  50   26   47 1

#	End of record

