#	Name: ASD01883182
#	Creating user name:	WinNT
#	Creation time:	15. 06. 2019 19:45

#	Modifying user name:	WinNT
#	Modification time:	15. 06. 2019 19:45

#	Program:	/corina/corina34_cracker 3.40 0067  02.08.2006

@<TRIPOS>MOLECULE
ASD01883182
  57   59    0    0    0
SMALL
NO_CHARGES


@<TRIPOS>ATOM
   1 N1            -0.0162     1.3417     0.0094 N.am    
   2 C2             0.0021    -0.0041     0.0020 C.2     
   3 C3            -1.2161    -0.7274     0.0102 C.2     
   4 C4            -2.4261    -0.0112     0.0261 C.2     
   5 C5            -2.3786     1.3968     0.0332 C.2     
   6 C6            -1.1850     2.0325     0.0299 C.2     
   7 O7             1.0657    -0.6000    -0.0122 O.2     
   8 C8            -1.2151    -2.1594     0.0021 C.1     
   9 N9            -1.2144    -3.2953    -0.0044 N.1     
  10 C10            1.2513     2.0764     0.0013 C.3     
  11 C11            1.6787     2.3399    -1.4440 C.3     
  12 C12            3.0024     3.1072    -1.4525 C.3     
  13 C13            3.4929     3.2619    -2.8935 C.3     
  14 C14            2.7939     4.4907    -0.8334 C.3     
  15 C15           -3.7218    -0.7213     0.0347 C.ar    
  16 C16           -4.5708    -0.6162     1.1391 C.ar    
  17 C17           -5.7778    -1.2797     1.1433 C.ar    
  18 C18           -6.1513    -2.0534     0.0510 C.ar    
  19 C19           -5.3094    -2.1609    -1.0494 C.ar    
  20 C20           -4.1037    -1.4950    -1.0640 C.ar    
  21 O21           -7.3417    -2.7063     0.0591 O.3     
  22 C22           -7.6630    -3.4838    -1.0960 C.3     
  23 C23           -9.0318    -4.1399    -0.9045 C.3     
  24 C24           -9.3759    -4.9724    -2.1413 C.3     
  25 C25          -10.7444    -5.6303    -1.9535 C.3     
  26 O26           -9.4026    -4.1269    -3.2988 O.3     
  27 C27           -8.4199    -4.6352    -4.2235 C.3     
  28 C28           -8.2385    -6.1051    -3.7693 C.3     
  29 O29           -8.3752    -5.9860    -2.3349 O.3     
  30 H30           -3.2949     1.9683     0.0453 H       
  31 H31           -1.1610     3.1122     0.0354 H       
  32 H32            1.1242     3.0258     0.5214 H       
  33 H33            2.0168     1.4859     0.5046 H       
  34 H34            1.8057     1.3905    -1.9642 H       
  35 H35            0.9132     2.9304    -1.9474 H       
  36 H36            3.7444     2.5579    -0.8731 H       
  37 H37            2.7508     3.8111    -3.4729 H       
  38 H38            4.4359     3.8085    -2.8995 H       
  39 H39            3.6415     2.2762    -3.3345 H       
  40 H40            2.4444     4.3805     0.1931 H       
  41 H41            3.7369     5.0373    -0.8395 H       
  42 H42            2.0518     5.0399    -1.4129 H       
  43 H43           -4.2809    -0.0157     1.9887 H       
  44 H44           -6.4347    -1.1990     1.9968 H       
  45 H45           -5.6031    -2.7634    -1.8962 H       
  46 H46           -3.4501    -1.5788    -1.9197 H       
  47 H47           -7.6895    -2.8373    -1.9733 H       
  48 H48           -6.9064    -4.2558    -1.2363 H       
  49 H49           -9.0054    -4.7863    -0.0273 H       
  50 H50           -9.7884    -3.3679    -0.7642 H       
  51 H51          -11.5021    -4.8592    -1.8140 H       
  52 H52          -10.9869    -6.2225    -2.8359 H       
  53 H53          -10.7191    -6.2777    -1.0770 H       
  54 H54           -8.7945    -4.5915    -5.2462 H       
  55 H55           -7.4834    -4.0851    -4.1313 H       
  56 H56           -9.0191    -6.7415    -4.1861 H       
  57 H57           -7.2495    -6.4770    -4.0370 H       
@<TRIPOS>BOND
   1    1    2 am
   2    1   10 1
   3    1    6 1
   4    2    3 1
   5    2    7 2
   6    3    4 2
   7    3    8 1
   8    4    5 1
   9    4   15 1
  10    5    6 2
  11    5   30 1
  12    6   31 1
  13    8    9 3
  14   10   11 1
  15   10   32 1
  16   10   33 1
  17   11   12 1
  18   11   34 1
  19   11   35 1
  20   12   13 1
  21   12   14 1
  22   12   36 1
  23   13   37 1
  24   13   38 1
  25   13   39 1
  26   14   40 1
  27   14   41 1
  28   14   42 1
  29   15   16 ar
  30   15   20 ar
  31   16   17 ar
  32   16   43 1
  33   17   18 ar
  34   17   44 1
  35   18   19 ar
  36   18   21 1
  37   19   20 ar
  38   19   45 1
  39   20   46 1
  40   21   22 1
  41   22   23 1
  42   22   47 1
  43   22   48 1
  44   23   24 1
  45   23   49 1
  46   23   50 1
  47   24   25 1
  48   24   26 1
  49   24   29 1
  50   25   51 1
  51   25   52 1
  52   25   53 1
  53   26   27 1
  54   27   28 1
  55   27   54 1
  56   27   55 1
  57   28   29 1
  58   28   56 1
  59   28   57 1

#	End of record

