#	Name: ASD01913407
#	Creating user name:	WinNT
#	Creation time:	15. 06. 2019 20:01

#	Modifying user name:	WinNT
#	Modification time:	15. 06. 2019 20:01

#	Program:	/corina/corina34_cracker 3.40 0067  02.08.2006

@<TRIPOS>MOLECULE
ASD01913407
  34   36    0    0    0
SMALL
NO_CHARGES


@<TRIPOS>ATOM
   1 C1            -0.3670    -0.7396    -2.2421 C.ar    
   2 C2            -0.6987    -0.0455    -1.0829 C.ar    
   3 C3            -0.5525     1.3342    -1.0585 C.ar    
   4 N4            -0.1066     1.9820    -2.1163 N.ar    
   5 C5             0.2164     1.3542    -3.2302 C.ar    
   6 C6             0.0983    -0.0192    -3.3306 C.ar    
   7 C7            -1.1819    -2.0673    -0.0311 C.ar    
   8 C8            -0.0691    -2.7921     0.3742 C.ar    
   9 C9            -0.0881    -4.1744     0.3402 C.ar    
  10 C10           -1.2130    -4.8427    -0.0972 C.ar    
  11 C11           -2.3370    -4.1226    -0.5068 C.ar    
  12 C12           -2.3167    -2.7282    -0.4716 C.ar    
  13 C13           -3.5438    -4.8352    -0.9764 C.2     
  14 N14           -3.5606    -6.1824    -1.0099 N.am    
  15 C15           -4.6929    -6.8511    -1.4505 C.2     
  16 O16           -4.5210    -4.2062    -1.3325 O.2     
  17 O17           -1.1596    -0.7092     0.0098 O.3     
  18 S18           -6.1738    -6.1595    -1.9960 S.3     
  19 N19           -6.9158    -7.6565    -2.3068 N.2     
  20 C20           -6.0335    -8.5603    -1.9918 C.2     
  21 N21           -4.8680    -8.1514    -1.5485 N.2     
  22 C22           -6.3387   -10.0289    -2.1370 C.3     
  23 H23           -0.4656    -1.8140    -2.2910 H       
  24 H24           -0.8070     1.8830    -0.1638 H       
  25 H25            0.5779     1.9210    -4.0755 H       
  26 H26            0.3655    -0.5250    -4.2466 H       
  27 H27            0.8146    -2.2744     0.7169 H       
  28 H28            0.7806    -4.7325     0.6567 H       
  29 H29           -1.2241    -5.9223    -0.1231 H       
  30 H30           -3.1831    -2.1656    -0.7868 H       
  31 H31           -2.7807    -6.6844    -0.7257 H       
  32 H32           -6.0487   -10.3635    -3.1330 H       
  33 H33           -5.7813   -10.5916    -1.3881 H       
  34 H34           -7.4067   -10.1938    -1.9949 H       
@<TRIPOS>BOND
   1    1    2 ar
   2    1    6 ar
   3    1   23 1
   4    2    3 ar
   5    2   17 1
   6    3    4 ar
   7    3   24 1
   8    4    5 ar
   9    5    6 ar
  10    5   25 1
  11    6   26 1
  12    7    8 ar
  13    7   12 ar
  14    7   17 1
  15    8    9 ar
  16    8   27 1
  17    9   10 ar
  18    9   28 1
  19   10   11 ar
  20   10   29 1
  21   11   12 ar
  22   11   13 1
  23   12   30 1
  24   13   14 am
  25   13   16 2
  26   14   15 1
  27   14   31 1
  28   15   18 1
  29   15   21 2
  30   18   19 1
  31   19   20 2
  32   20   21 1
  33   20   22 1
  34   22   32 1
  35   22   33 1
  36   22   34 1

#	End of record

