#	Name: ASD01209037
#	Creating user name:	WinNT
#	Creation time:	15. 06. 2019 19:10

#	Modifying user name:	WinNT
#	Modification time:	15. 06. 2019 19:10

#	Program:	/corina/corina34_cracker 3.40 0067  02.08.2006

@<TRIPOS>MOLECULE
ASD01209037
  60   64    0    0    0
SMALL
NO_CHARGES


@<TRIPOS>ATOM
   1 C1            -0.2877     1.6207     0.1004 C.3     
   2 C2            -0.1559     0.1011    -0.0401 C.3     
   3 C3             0.8191    -0.4161     1.0221 C.3     
   4 C4             2.1624     0.3007     0.8629 C.3     
   5 C5             1.0984     2.2589    -0.0232 C.3     
   6 C6            -1.5249    -0.5521     0.1603 C.3     
   7 C7            -1.4308    -2.0440    -0.1658 C.3     
   8 C8            -2.8112    -2.6484    -0.1555 C.2     
   9 O9            -3.0734    -3.5484     0.6143 O.2     
  10 N10           -0.5978    -2.7116     0.8376 N.pl3   
  11 C11            0.4577    -3.5505     0.5803 C.ar    
  12 C12            0.9626    -3.9570     1.8318 C.ar    
  13 C13            0.1672    -3.3280     2.8186 C.2     
  14 N14           -0.7356    -2.6006     2.2265 N.2     
  15 N15           -3.7544    -2.1890    -1.0016 N.am    
  16 C16            1.0496    -4.0169    -0.5863 C.ar    
  17 C17            2.1365    -4.8819    -0.5073 C.ar    
  18 C18            2.6327    -5.2815     0.7429 C.ar    
  19 C19            2.0593    -4.8293     1.8909 C.ar    
  20 S20            2.6948    -5.3401     3.4529 S.o2    
  21 O21            1.5533    -5.8033     4.1611 O.2     
  22 O22            3.7614    -6.2204     3.1264 O.2     
  23 C23            3.3336    -3.8164     4.2019 C.3     
  24 C24            4.0688    -3.9403     5.5379 C.3     
  25 C25            4.8523    -3.6399     4.2586 C.3     
  26 C26           -5.0382    -2.7512    -0.9920 C.2     
  27 C27           -5.4764    -3.7925    -0.1582 C.2     
  28 C28           -6.7712    -4.0453    -0.4557 C.2     
  29 N29           -7.1428    -3.1992    -1.4394 N.pl3   
  30 N30           -6.0424    -2.3927    -1.7568 N.2     
  31 O31            1.9639     1.7116     0.9735 O.3     
  32 C32           -8.4671    -3.1321    -2.0623 C.3     
  33 C33            2.7508    -5.3667    -1.7066 C.1     
  34 N34            3.2382    -5.7512    -2.6580 N.1     
  35 H35           -0.9368     2.0043    -0.6867 H       
  36 H36           -0.7137     1.8609     1.0745 H       
  37 H37            0.2237    -0.1418    -1.0325 H       
  38 H38            0.4154    -0.2171     2.0149 H       
  39 H39            0.9614    -1.4892     0.8942 H       
  40 H40            2.8468    -0.0323     1.6431 H       
  41 H41            2.5847     0.0686    -0.1147 H       
  42 H42            1.5068     2.0523    -1.0125 H       
  43 H43            1.0163     3.3365     0.1186 H       
  44 H44           -1.8396    -0.4258     1.1962 H       
  45 H45           -2.2525    -0.0809    -0.5005 H       
  46 H46           -0.9850    -2.1729    -1.1521 H       
  47 H47            0.2913    -3.4309     3.8865 H       
  48 H48           -3.5446    -1.4693    -1.6172 H       
  49 H49            0.6683    -3.7102    -1.5491 H       
  50 H50            3.4768    -5.9533     0.7944 H       
  51 H51            2.7285    -2.9241     4.0412 H       
  52 H52            3.9477    -3.1294     6.2561 H       
  53 H53            4.1686    -4.9374     5.9668 H       
  54 H54            5.4676    -4.4394     3.8458 H       
  55 H55            5.2467    -2.6313     4.1351 H       
  56 H56           -4.8845    -4.3011     0.5884 H       
  57 H57           -7.3968    -4.7920     0.0108 H       
  58 H58           -9.0916    -2.4274    -1.5132 H       
  59 H59           -8.3663    -2.7997    -3.0954 H       
  60 H60           -8.9288    -4.1193    -2.0416 H       
@<TRIPOS>BOND
   1    1    2 1
   2    1    5 1
   3    1   35 1
   4    1   36 1
   5    2    3 1
   6    2    6 1
   7    2   37 1
   8    3    4 1
   9    3   38 1
  10    3   39 1
  11    4   31 1
  12    4   40 1
  13    4   41 1
  14    5   31 1
  15    5   42 1
  16    5   43 1
  17    6    7 1
  18    6   44 1
  19    6   45 1
  20    7    8 1
  21    7   10 1
  22    7   46 1
  23    8    9 2
  24    8   15 am
  25   10   11 1
  26   10   14 1
  27   11   12 ar
  28   11   16 ar
  29   12   13 1
  30   12   19 ar
  31   13   14 2
  32   13   47 1
  33   15   26 1
  34   15   48 1
  35   16   17 ar
  36   16   49 1
  37   17   18 ar
  38   17   33 1
  39   18   19 ar
  40   18   50 1
  41   19   20 1
  42   20   21 2
  43   20   22 2
  44   20   23 1
  45   23   24 1
  46   23   25 1
  47   23   51 1
  48   24   25 1
  49   24   52 1
  50   24   53 1
  51   25   54 1
  52   25   55 1
  53   26   27 1
  54   26   30 2
  55   27   28 2
  56   27   56 1
  57   28   29 1
  58   28   57 1
  59   29   30 1
  60   29   32 1
  61   32   58 1
  62   32   59 1
  63   32   60 1
  64   33   34 3

#	End of record

