#	Name: ASD01912321
#	Creating user name:	WinNT
#	Creation time:	15. 06. 2019 19:59

#	Modifying user name:	WinNT
#	Modification time:	15. 06. 2019 19:59

#	Program:	/corina/corina34_cracker 3.40 0067  02.08.2006

@<TRIPOS>MOLECULE
ASD01912321
  53   56    0    0    0
SMALL
NO_CHARGES


@<TRIPOS>ATOM
   1 C1            -0.1197     1.3225     0.1546 C.ar    
   2 C2            -0.1102    -0.0744     0.2083 C.ar    
   3 C3             1.1013    -0.7394     0.1632 C.ar    
   4 C4             2.2665     0.0098     0.0659 C.ar    
   5 C5             2.1856     1.3895     0.0171 C.ar    
   6 N6             1.0201     2.0014     0.0616 N.ar    
   7 C7             3.4488     2.2044    -0.0885 C.3     
   8 C8            -1.3658     2.0271     0.1942 C.1     
   9 C9            -2.3873     2.6047     0.2266 C.1     
  10 C10           -3.6334     3.3092     0.2662 C.2     
  11 N11           -3.6154     7.1990     1.2276 N.am    
  12 C12           -4.8697     6.4494     1.3746 C.3     
  13 C13           -4.9538     5.4033     0.2558 C.3     
  14 C14           -3.6478     4.6405     0.2153 C.2     
  15 C15           -2.3587     5.4261     0.1152 C.3     
  16 C16           -2.3397     6.4716     1.2375 C.3     
  17 C17           -3.6352     8.5385     1.0796 C.2     
  18 O18           -2.5935     9.1650     1.0755 O.2     
  19 N19           -6.3483    10.8022     0.7574 N.pl3   
  20 N20           -5.0946    10.5504     0.9162 N.2     
  21 C21           -4.9237     9.2458     0.9224 C.2     
  22 N22           -6.1285     8.6689     0.7599 N.2     
  23 C23           -7.0098     9.6310     0.6578 C.2     
  24 C24           -6.9275    12.0776     0.7034 C.ar    
  25 C25           -6.4156    13.1070     1.4820 C.ar    
  26 C26           -6.9873    14.3629     1.4271 C.ar    
  27 C27           -8.0704    14.5960     0.5961 C.ar    
  28 C28           -8.5824    13.5704    -0.1813 C.ar    
  29 C29           -8.0102    12.3145    -0.1330 C.ar    
  30 F30           -8.6286    15.8252     0.5440 F       
  31 C31           -8.4947     9.4611     0.4649 C.3     
  32 H32           -1.0355    -0.6260     0.2842 H       
  33 H33            1.1405    -1.8180     0.2031 H       
  34 H34            3.2279    -0.4809     0.0290 H       
  35 H35            3.6934     2.3611    -1.1391 H       
  36 H36            3.3009     3.1686     0.3978 H       
  37 H37            4.2659     1.6729     0.3993 H       
  38 H38           -4.5614     2.7614     0.3372 H       
  39 H39           -4.8856     5.9503     2.3435 H       
  40 H40           -5.7151     7.1333     1.2997 H       
  41 H41           -5.7746     4.7152     0.4578 H       
  42 H42           -5.1180     5.9007    -0.7000 H       
  43 H43           -1.5089     4.7526     0.2266 H       
  44 H44           -2.3075     5.9254    -0.8524 H       
  45 H45           -1.5195     7.1702     1.0722 H       
  46 H46           -2.2104     5.9738     2.1985 H       
  47 H47           -5.5712    12.9256     2.1304 H       
  48 H48           -6.5896    15.1638     2.0328 H       
  49 H49           -9.4273    13.7540    -0.8284 H       
  50 H50           -8.4071    11.5161    -0.7424 H       
  51 H51           -8.7218     9.4329    -0.6008 H       
  52 H52           -8.8173     8.5296     0.9299 H       
  53 H53           -9.0192    10.2981     0.9260 H       
@<TRIPOS>BOND
   1    1    2 ar
   2    1    6 ar
   3    1    8 1
   4    2    3 ar
   5    2   32 1
   6    3    4 ar
   7    3   33 1
   8    4    5 ar
   9    4   34 1
  10    5    6 ar
  11    5    7 1
  12    7   35 1
  13    7   36 1
  14    7   37 1
  15    8    9 3
  16    9   10 1
  17   10   14 2
  18   10   38 1
  19   11   12 1
  20   11   16 1
  21   11   17 am
  22   12   13 1
  23   12   39 1
  24   12   40 1
  25   13   14 1
  26   13   41 1
  27   13   42 1
  28   14   15 1
  29   15   16 1
  30   15   43 1
  31   15   44 1
  32   16   45 1
  33   16   46 1
  34   17   18 2
  35   17   21 1
  36   19   20 1
  37   19   23 1
  38   19   24 1
  39   20   21 2
  40   21   22 1
  41   22   23 2
  42   23   31 1
  43   24   25 ar
  44   24   29 ar
  45   25   26 ar
  46   25   47 1
  47   26   27 ar
  48   26   48 1
  49   27   28 ar
  50   27   30 1
  51   28   29 ar
  52   28   49 1
  53   29   50 1
  54   31   51 1
  55   31   52 1
  56   31   53 1

#	End of record

