#	Name: ASD00122032
#	Creating user name:	WinNT
#	Creation time:	15. 06. 2019 18:31

#	Modifying user name:	WinNT
#	Modification time:	15. 06. 2019 18:31

#	Program:	/corina/corina34_cracker 3.40 0067  02.08.2006

@<TRIPOS>MOLECULE
ASD00122032
  48   48    0    0    0
SMALL
NO_CHARGES


@<TRIPOS>ATOM
   1 C1            -0.0100     1.3833     0.0195 C.ar    
   2 C2             0.0044    -0.0079     0.0084 C.ar    
   3 C3             1.2147    -0.6942    -0.0036 C.ar    
   4 C4             2.4024     0.0018    -0.0048 C.ar    
   5 C5             2.3915     1.3993     0.0059 C.ar    
   6 C6             1.1741     2.0854     0.0183 C.ar    
   7 C7             3.6629     2.1488     0.0050 C.2     
   8 N8             3.6507     3.4965     0.0154 N.am    
   9 O9             4.7213     1.5505    -0.0050 O.2     
  10 C10            4.9128     4.2404     0.0146 C.3     
  11 C11            4.6851     5.6303    -0.5833 C.3     
  12 C12            5.4233     4.3802     1.4501 C.3     
  13 C13            5.7692     2.9971     2.0053 C.3     
  14 C14            4.2946     5.4940    -2.0564 C.3     
  15 N15           -1.1969    -0.7161     0.0096 N.am    
  16 C16           -1.2945    -1.8787    -0.6652 C.2     
  17 O17           -2.4173    -2.6163    -0.5765 O.3     
  18 O18           -0.3692    -2.2610    -1.3536 O.2     
  19 C19           -2.4523    -3.8568    -1.3303 C.3     
  20 C20           -1.3207    -4.7723    -0.8587 C.3     
  21 C21           -3.7971    -4.5516    -1.1068 C.3     
  22 C22           -2.2761    -3.5538    -2.8196 C.3     
  23 H23           -0.9512     1.9129     0.0246 H       
  24 H24            1.2223    -1.7741    -0.0115 H       
  25 H25            3.3415    -0.5315    -0.0137 H       
  26 H26            1.1622     3.1654     0.0262 H       
  27 H27            2.8063     3.9738     0.0234 H       
  28 H28            5.6502     3.7043    -0.5828 H       
  29 H29            3.8847     6.1328    -0.0402 H       
  30 H30            5.6015     6.2149    -0.5030 H       
  31 H31            6.3139     5.0085     1.4594 H       
  32 H32            4.6501     4.8367     2.0679 H       
  33 H33            4.8786     2.3687     1.9959 H       
  34 H34            6.5425     2.5405     1.3874 H       
  35 H35            6.1330     3.0966     3.0279 H       
  36 H36            3.3781     4.9094    -2.1367 H       
  37 H37            4.1323     6.4842    -2.4823 H       
  38 H38            5.0949     4.9915    -2.5995 H       
  39 H39           -1.9622    -0.3720     0.4962 H       
  40 H40           -1.4463    -4.9881     0.2023 H       
  41 H41           -1.3470    -5.7035    -1.4246 H       
  42 H42           -0.3627    -4.2773    -1.0179 H       
  43 H43           -4.6032    -3.8994    -1.4427 H       
  44 H44           -3.8234    -5.4828    -1.6726 H       
  45 H45           -3.9226    -4.7675    -0.0458 H       
  46 H46           -1.3181    -3.0589    -2.9788 H       
  47 H47           -2.3024    -4.4851    -3.3854 H       
  48 H48           -3.0823    -2.9016    -3.1555 H       
@<TRIPOS>BOND
   1    1    2 ar
   2    1    6 ar
   3    1   23 1
   4    2    3 ar
   5    2   15 1
   6    3    4 ar
   7    3   24 1
   8    4    5 ar
   9    4   25 1
  10    5    6 ar
  11    5    7 1
  12    6   26 1
  13    7    8 am
  14    7    9 2
  15    8   10 1
  16    8   27 1
  17   10   11 1
  18   10   12 1
  19   10   28 1
  20   11   14 1
  21   11   29 1
  22   11   30 1
  23   12   13 1
  24   12   31 1
  25   12   32 1
  26   13   33 1
  27   13   34 1
  28   13   35 1
  29   14   36 1
  30   14   37 1
  31   14   38 1
  32   15   16 am
  33   15   39 1
  34   16   17 1
  35   16   18 2
  36   17   19 1
  37   19   20 1
  38   19   21 1
  39   19   22 1
  40   20   40 1
  41   20   41 1
  42   20   42 1
  43   21   43 1
  44   21   44 1
  45   21   45 1
  46   22   46 1
  47   22   47 1
  48   22   48 1

#	End of record

