#	Name: ASD01882424
#	Creating user name:	WinNT
#	Creation time:	15. 06. 2019 19:44

#	Modifying user name:	WinNT
#	Modification time:	15. 06. 2019 19:44

#	Program:	/corina/corina34_cracker 3.40 0067  02.08.2006

@<TRIPOS>MOLECULE
ASD01882424
  28   29    0    0    0
SMALL
NO_CHARGES


@<TRIPOS>ATOM
   1 C1            -0.0167     1.3828     0.0096 C.ar    
   2 C2             0.0021    -0.0041     0.0020 C.ar    
   3 C3             1.2071    -0.6787    -0.0126 C.ar    
   4 C4             2.4001     0.0319    -0.0202 C.ar    
   5 C5             2.3803     1.4204    -0.0130 C.ar    
   6 C6             1.1744     2.0934     0.0021 C.ar    
   7 O7            -1.2039     2.0463     0.0189 O.3     
   8 N8             3.6216    -0.6508    -0.0346 N.3     
   9 C9             4.7498     0.2892    -0.0404 C.3     
  10 C10            6.0624    -0.4866     0.0907 C.3     
  11 C11            6.1872    -1.4700    -1.0763 C.3     
  12 C12            4.9757    -2.4064    -1.0761 C.3     
  13 C13            3.6945    -1.5750    -1.1734 C.3     
  14 H14           -0.9259    -0.5566     0.0079 H       
  15 H15            1.2216    -1.7586    -0.0179 H       
  16 H16            3.3077     1.9738    -0.0189 H       
  17 H17            1.1588     3.1732     0.0077 H       
  18 H18           -1.5430     2.2334     0.9049 H       
  19 H19            4.7508     0.8494    -0.9754 H       
  20 H20            4.6511     0.9802     0.7967 H       
  21 H21            6.9005     0.2102     0.0706 H       
  22 H22            6.0679    -1.0362     1.0319 H       
  23 H23            6.2209    -0.9182    -2.0157 H       
  24 H24            7.0998    -2.0552    -0.9635 H       
  25 H25            5.0372    -3.0813    -1.9298 H       
  26 H26            4.9640    -2.9862    -0.1532 H       
  27 H27            2.8294    -2.2379    -1.1591 H       
  28 H28            3.7005    -1.0060    -2.1031 H       
@<TRIPOS>BOND
   1    1    2 ar
   2    1    6 ar
   3    1    7 1
   4    2    3 ar
   5    2   14 1
   6    3    4 ar
   7    3   15 1
   8    4    5 ar
   9    4    8 1
  10    5    6 ar
  11    5   16 1
  12    6   17 1
  13    7   18 1
  14    8    9 1
  15    8   13 1
  16    9   10 1
  17    9   19 1
  18    9   20 1
  19   10   11 1
  20   10   21 1
  21   10   22 1
  22   11   12 1
  23   11   23 1
  24   11   24 1
  25   12   13 1
  26   12   25 1
  27   12   26 1
  28   13   27 1
  29   13   28 1

#	End of record

