#	Name: ASD07301555
#	Creating user name:	WinNT
#	Creation time:	15. 06. 2019 21:11

#	Modifying user name:	WinNT
#	Modification time:	15. 06. 2019 21:11

#	Program:	/corina/corina34_cracker 3.40 0067  02.08.2006

@<TRIPOS>MOLECULE
ASD07301555
  38   41    0    0    0
SMALL
NO_CHARGES


@<TRIPOS>ATOM
   1 C1             3.0698     5.7422    -0.2533 C.ar    
   2 N2             3.9689     5.9521    -1.2048 N.ar    
   3 C3             4.8524     5.0276    -1.5210 C.ar    
   4 N4             4.8872     3.8581    -0.9136 N.ar    
   5 C5             4.0213     3.5675     0.0512 C.ar    
   6 C6             3.0660     4.5270     0.4151 C.ar    
   7 N7             2.1335     4.2657     1.4264 N.pl3   
   8 N8             4.0614     2.3341     0.6880 N.pl3   
   9 C9             5.0947     1.4334     0.4045 C.ar    
  10 C10            6.3666     1.9063     0.1080 C.ar    
  11 C11            4.8496     0.0664     0.4253 C.ar    
  12 C12            5.8687    -0.8220     0.1457 C.ar    
  13 C13            7.1391    -0.3488    -0.1560 C.ar    
  14 C14            7.3856     1.0179    -0.1716 C.ar    
  15 N15            8.1731    -1.2500    -0.4387 N.pl3   
  16 C16            9.1857    -0.8885    -1.2997 C.2     
  17 N17           10.2543    -1.6036    -1.5430 N.2     
  18 O18            9.2178     0.2484    -2.0174 O.3     
  19 C19           10.3593     0.2573    -2.7434 C.ar    
  20 C20           11.0310    -0.9364    -2.4399 C.ar    
  21 C21           10.9160     1.1514    -3.6434 C.ar    
  22 C22           12.1301     0.8663    -4.2349 C.ar    
  23 C23           12.7989    -0.3105    -3.9351 C.ar    
  24 C24           12.2572    -1.2130    -3.0463 C.ar    
  25 H25            2.3529     6.5089     0.0009 H       
  26 H26            5.5696     5.2338    -2.3017 H       
  27 H27            2.1428     3.4114     1.8857 H       
  28 H28            1.4783     4.9390     1.6677 H       
  29 H29            3.3734     2.0968     1.3293 H       
  30 H30            6.5582     2.9691     0.0958 H       
  31 H31            3.8619    -0.3016     0.6606 H       
  32 H32            5.6781    -1.8849     0.1619 H       
  33 H33            8.3735     1.3858    -0.4062 H       
  34 H34            8.1763    -2.1289    -0.0282 H       
  35 H35           10.4005     2.0700    -3.8820 H       
  36 H36           12.5619     1.5647    -4.9364 H       
  37 H37           13.7483    -0.5229    -4.4041 H       
  38 H38           12.7819    -2.1284    -2.8155 H       
@<TRIPOS>BOND
   1    1    2 ar
   2    1    6 ar
   3    1   25 1
   4    2    3 ar
   5    3    4 ar
   6    3   26 1
   7    4    5 ar
   8    5    6 ar
   9    5    8 1
  10    6    7 1
  11    7   27 1
  12    7   28 1
  13    8    9 1
  14    8   29 1
  15    9   10 ar
  16    9   11 ar
  17   10   14 ar
  18   10   30 1
  19   11   12 ar
  20   11   31 1
  21   12   13 ar
  22   12   32 1
  23   13   14 ar
  24   13   15 1
  25   14   33 1
  26   15   16 1
  27   15   34 1
  28   16   17 2
  29   16   18 1
  30   17   20 1
  31   18   19 1
  32   19   20 ar
  33   19   21 ar
  34   20   24 ar
  35   21   22 ar
  36   21   35 1
  37   22   23 ar
  38   22   36 1
  39   23   24 ar
  40   23   37 1
  41   24   38 1

#	End of record

