#	Name: ASD01884455
#	Creating user name:	WinNT
#	Creation time:	15. 06. 2019 19:48

#	Modifying user name:	WinNT
#	Modification time:	15. 06. 2019 19:48

#	Program:	/corina/corina34_cracker 3.40 0067  02.08.2006

@<TRIPOS>MOLECULE
ASD01884455
  52   55    0    0    0
SMALL
NO_CHARGES


@<TRIPOS>ATOM
   1 C1            -0.0164     1.3575     0.0095 C.2     
   2 C2             0.0021    -0.0041     0.0020 C.2     
   3 C3             1.2441    -0.6750    -0.0134 C.2     
   4 C4             2.4025     0.0467    -0.0206 C.2     
   5 N5             2.3701     1.4021    -0.0126 N.am    
   6 C6             1.1988     2.0651     0.0017 C.2     
   7 C7             1.2900    -2.1582    -0.0214 C.ar    
   8 C8             3.6267     2.1552    -0.0196 C.3     
   9 O9             1.1913     3.2854     0.0083 O.2     
  10 C10            4.0449     2.4215    -1.4427 C.ar    
  11 C11            3.6211     3.5707    -2.0838 C.ar    
  12 C12            4.0043     3.8155    -3.3890 C.ar    
  13 C13            4.8120     2.9102    -4.0539 C.ar    
  14 C14            5.2358     1.7603    -3.4118 C.ar    
  15 C15            4.8566     1.5194    -2.1047 C.ar    
  16 C16            0.8131    -2.8784     1.0721 C.ar    
  17 C17            1.8047    -2.8360    -1.1247 C.ar    
  18 C18            1.8445    -4.2156    -1.1268 C.ar    
  19 C19            1.3742    -4.9253    -0.0367 C.ar    
  20 C20            0.8577    -4.2578     1.0592 C.ar    
  21 Cl21           5.2932     3.2167    -5.6935 Cl      
  22 C22            1.4199    -6.4316    -0.0452 C.3     
  23 O23            2.6627    -6.8736     0.5044 O.3     
  24 C24            2.8087    -8.2946     0.5426 C.3     
  25 C25            4.1481    -8.6461     1.1372 C.ar    
  26 C26            4.2721    -8.8284     2.5019 C.ar    
  27 C27            5.5007    -9.1508     3.0473 C.ar    
  28 C28            6.6052    -9.2914     2.2280 C.ar    
  29 C29            6.4810    -9.1101     0.8632 C.ar    
  30 C30            5.2515    -8.7919     0.3173 C.ar    
  31 H31           -0.9563     1.8894     0.0168 H       
  32 H32           -0.9217    -0.5636     0.0082 H       
  33 H33            3.3529    -0.4662    -0.0325 H       
  34 H34            3.4856     3.1024     0.5010 H       
  35 H35            4.4004     1.5756     0.4840 H       
  36 H36            2.9903     4.2771    -1.5647 H       
  37 H37            3.6729     4.7131    -3.8898 H       
  38 H38            5.8663     1.0533    -3.9303 H       
  39 H39            5.1873     0.6218    -1.6033 H       
  40 H40            0.4096    -2.3581     1.9282 H       
  41 H41            2.1716    -2.2828    -1.9766 H       
  42 H42            2.2433    -4.7419    -1.9814 H       
  43 H43            0.4919    -4.8168     1.9077 H       
  44 H44            0.5979    -6.8234     0.5540 H       
  45 H45            1.3268    -6.7922    -1.0696 H       
  46 H46            2.0156    -8.7250     1.1539 H       
  47 H47            2.7445    -8.6938    -0.4696 H       
  48 H48            3.4092    -8.7185     3.1420 H       
  49 H49            5.5978    -9.2924     4.1136 H       
  50 H50            7.5652    -9.5426     2.6542 H       
  51 H51            7.3440    -9.2196     0.2232 H       
  52 H52            5.1544    -8.6503    -0.7489 H       
@<TRIPOS>BOND
   1    1    2 2
   2    1    6 1
   3    1   31 1
   4    2    3 1
   5    2   32 1
   6    3    4 2
   7    3    7 1
   8    4    5 1
   9    4   33 1
  10    5    6 am
  11    5    8 1
  12    6    9 2
  13    7   16 ar
  14    7   17 ar
  15    8   10 1
  16    8   34 1
  17    8   35 1
  18   10   11 ar
  19   10   15 ar
  20   11   12 ar
  21   11   36 1
  22   12   13 ar
  23   12   37 1
  24   13   14 ar
  25   13   21 1
  26   14   15 ar
  27   14   38 1
  28   15   39 1
  29   16   20 ar
  30   16   40 1
  31   17   18 ar
  32   17   41 1
  33   18   19 ar
  34   18   42 1
  35   19   20 ar
  36   19   22 1
  37   20   43 1
  38   22   23 1
  39   22   44 1
  40   22   45 1
  41   23   24 1
  42   24   25 1
  43   24   46 1
  44   24   47 1
  45   25   26 ar
  46   25   30 ar
  47   26   27 ar
  48   26   48 1
  49   27   28 ar
  50   27   49 1
  51   28   29 ar
  52   28   50 1
  53   29   30 ar
  54   29   51 1
  55   30   52 1

#	End of record

