#	Name: ASD01884865
#	Creating user name:	WinNT
#	Creation time:	15. 06. 2019 19:49

#	Modifying user name:	WinNT
#	Modification time:	15. 06. 2019 19:49

#	Program:	/corina/corina34_cracker 3.40 0067  02.08.2006

@<TRIPOS>MOLECULE
ASD01884865
  38   42    0    0    0
SMALL
NO_CHARGES


@<TRIPOS>ATOM
   1 C1            -0.0166     1.3723     0.0096 C.ar    
   2 C2             0.0021    -0.0041     0.0020 C.ar    
   3 C3             1.2180    -0.6885    -0.0132 C.ar    
   4 C4             2.4145     0.0301    -0.0208 C.ar    
   5 C5             2.3877     1.4055    -0.0131 C.ar    
   6 C6             1.1787     2.0916     0.0020 C.ar    
   7 C7             3.4850     2.4438    -0.0175 C.3     
   8 N8             2.7854     3.7368    -0.0037 N.pl3   
   9 N9             1.4141     3.4645     0.0076 N.pl3   
  10 C10            1.2388    -2.1696    -0.0209 C.2     
  11 C11            0.7336    -2.8694    -1.1017 C.2     
  12 C12            1.7817    -2.8829     1.0761 C.2     
  13 C13            1.7999    -4.2284     1.0678 C.2     
  14 N14            1.2982    -4.9290     0.0075 N.pl3   
  15 C15            0.7674    -4.2753    -1.0794 C.2     
  16 Cl16           0.0674    -2.0254    -2.4646 Cl      
  17 C17            1.1861    -6.2581    -0.2676 C.2     
  18 N18            0.6191    -6.3707    -1.4419 N.2     
  19 N19            0.3684    -5.2072    -1.9305 N.2     
  20 Cl20           1.7014    -7.5645     0.7530 Cl      
  21 C21            3.3797     5.0012    -0.0017 C.ar    
  22 C22            4.7626     5.1299    -0.0134 C.ar    
  23 N23            5.3268     6.3212    -0.0116 N.ar    
  24 C24            4.6114     7.4287     0.0009 C.ar    
  25 C25            3.2295     7.3821     0.0127 C.ar    
  26 C26            2.5940     6.1516     0.0063 C.ar    
  27 H27           -0.9603     1.8973     0.0169 H       
  28 H28           -0.9265    -0.5555     0.0083 H       
  29 H29            3.3596    -0.4926    -0.0322 H       
  30 H30            4.1077     2.3405     0.8710 H       
  31 H31            4.0910     2.3506    -0.9187 H       
  32 H32            0.7193     4.1414     0.0175 H       
  33 H33            2.1828    -2.3447     1.9222 H       
  34 H34            2.2167    -4.7612     1.9098 H       
  35 H35            5.3818     4.2451    -0.0238 H       
  36 H36            5.1119     8.3858     0.0023 H       
  37 H37            2.6523     8.2949     0.0228 H       
  38 H38            1.5161     6.0854     0.0152 H       
@<TRIPOS>BOND
   1    1    2 ar
   2    1    6 ar
   3    1   27 1
   4    2    3 ar
   5    2   28 1
   6    3    4 ar
   7    3   10 1
   8    4    5 ar
   9    4   29 1
  10    5    6 ar
  11    5    7 1
  12    6    9 1
  13    7    8 1
  14    7   30 1
  15    7   31 1
  16    8    9 1
  17    8   21 1
  18    9   32 1
  19   10   11 2
  20   10   12 1
  21   11   16 1
  22   11   15 1
  23   12   13 2
  24   12   33 1
  25   13   14 1
  26   13   34 1
  27   14   15 1
  28   14   17 1
  29   15   19 2
  30   17   18 2
  31   17   20 1
  32   18   19 1
  33   21   22 ar
  34   21   26 ar
  35   22   23 ar
  36   22   35 1
  37   23   24 ar
  38   24   25 ar
  39   24   36 1
  40   25   26 ar
  41   25   37 1
  42   26   38 1

#	End of record

