#	Name: ASD07330031
#	Creating user name:	WinNT
#	Creation time:	15. 06. 2019 21:11

#	Modifying user name:	WinNT
#	Modification time:	15. 06. 2019 21:11

#	Program:	/corina/corina34_cracker 3.40 0067  02.08.2006

@<TRIPOS>MOLECULE
ASD07330031
  68   71    0    0    0
SMALL
NO_CHARGES


@<TRIPOS>ATOM
   1 C1            -0.6366     2.5738     0.3460 C.ar    
   2 C2            -0.7760     1.6193    -0.6628 C.ar    
   3 N3            -1.8042     0.7968    -0.6683 N.ar    
   4 C4            -2.7365     0.8422     0.2735 C.ar    
   5 C5            -2.6612     1.7699     1.3120 C.ar    
   6 C6            -1.6051     2.6409     1.3592 C.ar    
   7 N7            -3.8002    -0.0438     0.2249 N.3     
   8 C8            -3.3717    -1.3535    -0.2855 C.3     
   9 C9            -4.5545    -2.3241    -0.2489 C.3     
  10 N10           -5.6553    -1.7816    -1.0573 N.3     
  11 C11           -6.0838    -0.4718    -0.5469 C.3     
  12 C12           -4.9009     0.4988    -0.5835 C.3     
  13 C13            0.5159     3.4950     0.3504 C.2     
  14 N14            1.4435     3.4184    -0.6243 N.am    
  15 O15            0.6288     4.3232     1.2335 O.2     
  16 C16            2.5879     4.3331    -0.6199 C.3     
  17 C17            3.4821     4.0369    -1.8255 C.3     
  18 Cl18          -3.8904     1.8158     2.5370 Cl      
  19 C19           -6.7833    -2.7212    -1.1089 C.3     
  20 C20           -4.1223    -3.6772    -0.8176 C.3     
  21 C21           -3.0246    -4.2743     0.0652 C.3     
  22 C22           -7.4375    -2.8087     0.2719 C.3     
  23 C23           -8.5914    -3.8151     0.2229 C.3     
  24 N24           -9.5101    -3.4291    -0.8567 N.am    
  25 C25           -8.9683    -3.2292    -2.2077 C.3     
  26 C26           -7.8102    -2.2293    -2.1315 C.3     
  27 C27          -10.8250    -3.2619    -0.6125 C.2     
  28 C28          -11.3405    -3.3751     0.7679 C.ar    
  29 C29          -12.2353    -2.4242     1.2620 C.ar    
  30 C30          -12.7128    -2.5351     2.5509 C.ar    
  31 C31          -12.3060    -3.5869     3.3550 C.ar    
  32 C32          -11.4181    -4.5332     2.8705 C.ar    
  33 C33          -10.9389    -4.4366     1.5811 C.ar    
  34 Cl34         -12.9110    -3.7195     4.9768 Cl      
  35 O35          -11.5870    -3.0181    -1.5278 O.2     
  36 H36           -0.0345     1.5550    -1.4454 H       
  37 H37           -1.5241     3.3683     2.1534 H       
  38 H38           -3.0206    -1.2467    -1.3119 H       
  39 H39           -2.5646    -1.7401     0.3369 H       
  40 H40           -4.8882    -2.4520     0.7808 H       
  41 H41           -6.8908    -0.0852    -1.1693 H       
  42 H42           -6.4349    -0.5786     0.4795 H       
  43 H43           -5.2088     1.4627    -0.1784 H       
  44 H44           -4.5672     0.6267    -1.6133 H       
  45 H45            1.3535     2.7576    -1.3287 H       
  46 H46            2.2312     5.3615    -0.6761 H       
  47 H47            3.1589     4.1962     0.2984 H       
  48 H48            3.8388     3.0084    -1.7694 H       
  49 H49            2.9111     4.1738    -2.7438 H       
  50 H50            4.3336     4.7174    -1.8222 H       
  51 H51           -6.4219    -3.7067    -1.4026 H       
  52 H52           -4.9780    -4.3520    -0.8398 H       
  53 H53           -3.7408    -3.5409    -1.8295 H       
  54 H54           -2.6964    -5.2246    -0.3560 H       
  55 H55           -2.1805    -3.5862     0.1108 H       
  56 H56           -3.4149    -4.4376     1.0698 H       
  57 H57           -6.6996    -3.1366     1.0040 H       
  58 H58           -7.8213    -1.8287     0.5554 H       
  59 H59           -8.1980    -4.8129     0.0287 H       
  60 H60           -9.1227    -3.8085     1.1747 H       
  61 H61           -8.6056    -4.1792    -2.6002 H       
  62 H62           -9.7482    -2.8360    -2.8597 H       
  63 H63           -8.1905    -1.2548    -1.8254 H       
  64 H64           -7.3375    -2.1449    -3.1100 H       
  65 H65          -12.5527    -1.6032     0.6362 H       
  66 H66          -13.4051    -1.8001     2.9342 H       
  67 H67          -11.1042    -5.3510     3.5023 H       
  68 H68          -10.2469    -5.1752     1.2043 H       
@<TRIPOS>BOND
   1    1    2 ar
   2    1   13 1
   3    1    6 ar
   4    2    3 ar
   5    2   36 1
   6    3    4 ar
   7    4    5 ar
   8    4    7 1
   9    5    6 ar
  10    5   18 1
  11    6   37 1
  12    7    8 1
  13    7   12 1
  14    8    9 1
  15    8   38 1
  16    8   39 1
  17    9   10 1
  18    9   20 1
  19    9   40 1
  20   10   11 1
  21   10   19 1
  22   11   12 1
  23   11   41 1
  24   11   42 1
  25   12   43 1
  26   12   44 1
  27   13   14 am
  28   13   15 2
  29   14   16 1
  30   14   45 1
  31   16   17 1
  32   16   46 1
  33   16   47 1
  34   17   48 1
  35   17   49 1
  36   17   50 1
  37   19   22 1
  38   19   26 1
  39   19   51 1
  40   20   21 1
  41   20   52 1
  42   20   53 1
  43   21   54 1
  44   21   55 1
  45   21   56 1
  46   22   23 1
  47   22   57 1
  48   22   58 1
  49   23   24 1
  50   23   59 1
  51   23   60 1
  52   24   25 1
  53   24   27 am
  54   25   26 1
  55   25   61 1
  56   25   62 1
  57   26   63 1
  58   26   64 1
  59   27   28 1
  60   27   35 2
  61   28   29 ar
  62   28   33 ar
  63   29   30 ar
  64   29   65 1
  65   30   31 ar
  66   30   66 1
  67   31   32 ar
  68   31   34 1
  69   32   33 ar
  70   32   67 1
  71   33   68 1

#	End of record

