#	Name: ASD04882022
#	Creating user name:	WinNT
#	Creation time:	15. 06. 2019 20:53

#	Modifying user name:	WinNT
#	Modification time:	15. 06. 2019 20:53

#	Program:	/corina/corina34_cracker 3.40 0067  02.08.2006

@<TRIPOS>MOLECULE
ASD04882022
  75   79    0    0    0
SMALL
NO_CHARGES


@<TRIPOS>ATOM
   1 C1             1.0112    -0.3187    -1.2334 C.ar    
   2 C2             0.8378    -1.2964    -2.1955 C.ar    
   3 C3             1.8221    -1.5237    -3.1402 C.ar    
   4 C4             2.9818    -0.7743    -3.1254 C.ar    
   5 C5             3.1593     0.2089    -2.1600 C.ar    
   6 C6             2.1688     0.4346    -1.2128 C.ar    
   7 N7             4.3313     0.9685    -2.1418 N.3     
   8 C8             5.0984     0.7238    -0.9125 C.3     
   9 C9             6.4096     1.5114    -0.9673 C.3     
  10 N10            6.1124     2.9422    -1.1231 N.3     
  11 C11            5.3452     3.1869    -2.3524 C.3     
  12 C12            4.0341     2.3993    -2.2977 C.3     
  13 C13            7.2808     3.6994    -1.1049 C.ar    
  14 C14            7.6925     4.3677    -2.2519 C.ar    
  15 C15            8.8478     5.1180    -2.2384 C.ar    
  16 C16            9.6097     5.2088    -1.0706 C.ar    
  17 C17            9.1977     4.5375     0.0845 C.ar    
  18 C18            8.0351     3.7910     0.0685 C.ar    
  19 N19            7.6187     3.1167     1.2241 N.am    
  20 C20            8.5262     2.7297     2.1424 C.2     
  21 C21            8.1007     1.9396     3.3113 C.2     
  22 O22            9.6963     3.0325     2.0062 O.2     
  23 C23            6.8366     1.5210     3.6079 C.2     
  24 C24            8.9509     1.4322     4.3982 C.2     
  25 C25            8.1307     0.7738     5.2313 C.2     
  26 O26            6.8781     0.8326     4.7529 O.3     
  27 C27           10.8474     6.0115    -1.0566 C.2     
  28 N28           11.2439     6.6579    -2.1708 N.am    
  29 O29           11.5097     6.0900    -0.0399 O.2     
  30 C30           12.4730     7.4551    -2.1569 C.3     
  31 C31            4.0539    -1.0231    -4.1548 C.3     
  32 C32           12.6889     8.0689    -3.5162 C.ar    
  33 C33           12.1593     9.3129    -3.8030 C.ar    
  34 C34           12.3547     9.8804    -5.0488 C.ar    
  35 C35           13.0830     9.2022    -6.0124 C.ar    
  36 C36           13.6168     7.9495    -5.7234 C.ar    
  37 C37           13.4214     7.3888    -4.4718 C.ar    
  38 O38           13.2757     9.7587    -7.2382 O.3     
  39 C39           12.6985    11.0463    -7.4641 C.3     
  40 O40           14.3321     7.2795    -6.6661 O.3     
  41 C41           14.8498     5.9991    -6.2993 C.3     
  42 H42            0.2388    -0.1407    -0.4999 H       
  43 H43           -0.0681    -1.8842    -2.2092 H       
  44 H44            1.6837    -2.2885    -3.8901 H       
  45 H45            2.3036     1.1982    -0.4611 H       
  46 H46            4.5158     1.0470    -0.0499 H       
  47 H47            5.3169    -0.3406    -0.8261 H       
  48 H48            6.9670     1.3543    -0.0439 H       
  49 H49            7.0043     1.1692    -1.8142 H       
  50 H50            5.1267     4.2513    -2.4389 H       
  51 H51            5.9278     2.8637    -3.2151 H       
  52 H52            3.4766     2.5564    -3.2210 H       
  53 H53            3.4394     2.7415    -1.4507 H       
  54 H54            7.1056     4.2984    -3.1558 H       
  55 H55            9.1651     5.6361    -3.1313 H       
  56 H56            9.7845     4.6059     0.9886 H       
  57 H57            6.6774     2.9285     1.3632 H       
  58 H58            5.9526     1.7135     3.0181 H       
  59 H59           10.0178     1.5626     4.5042 H       
  60 H60            8.4310     0.2739     6.1403 H       
  61 H61           10.7155     6.5953    -2.9818 H       
  62 H62           12.3852     8.2452    -1.4112 H       
  63 H63           13.3190     6.8141    -1.9092 H       
  64 H64            3.8269    -0.4589    -5.0594 H       
  65 H65            5.0182    -0.7034    -3.7597 H       
  66 H66            4.0921    -2.0867    -4.3899 H       
  67 H67           11.5913     9.8427    -3.0527 H       
  68 H68           11.9392    10.8523    -5.2707 H       
  69 H69           13.8345     6.4171    -4.2450 H       
  70 H70           11.6177    10.9875    -7.3357 H       
  71 H71           13.1109    11.7596    -6.7505 H       
  72 H72           12.9267    11.3738    -8.4784 H       
  73 H73           14.0261     5.3374    -6.0315 H       
  74 H74           15.3984     5.5745    -7.1400 H       
  75 H75           15.5197     6.1088    -5.4465 H       
@<TRIPOS>BOND
   1    1    2 ar
   2    1    6 ar
   3    1   42 1
   4    2    3 ar
   5    2   43 1
   6    3    4 ar
   7    3   44 1
   8    4    5 ar
   9    4   31 1
  10    5    6 ar
  11    5    7 1
  12    6   45 1
  13    7    8 1
  14    7   12 1
  15    8    9 1
  16    8   46 1
  17    8   47 1
  18    9   10 1
  19    9   48 1
  20    9   49 1
  21   10   11 1
  22   10   13 1
  23   11   12 1
  24   11   50 1
  25   11   51 1
  26   12   52 1
  27   12   53 1
  28   13   14 ar
  29   13   18 ar
  30   14   15 ar
  31   14   54 1
  32   15   16 ar
  33   15   55 1
  34   16   17 ar
  35   16   27 1
  36   17   18 ar
  37   17   56 1
  38   18   19 1
  39   19   20 am
  40   19   57 1
  41   20   21 1
  42   20   22 2
  43   21   23 2
  44   21   24 1
  45   23   26 1
  46   23   58 1
  47   24   25 2
  48   24   59 1
  49   25   26 1
  50   25   60 1
  51   27   28 am
  52   27   29 2
  53   28   30 1
  54   28   61 1
  55   30   32 1
  56   30   62 1
  57   30   63 1
  58   31   64 1
  59   31   65 1
  60   31   66 1
  61   32   33 ar
  62   32   37 ar
  63   33   34 ar
  64   33   67 1
  65   34   35 ar
  66   34   68 1
  67   35   36 ar
  68   35   38 1
  69   36   37 ar
  70   36   40 1
  71   37   69 1
  72   38   39 1
  73   39   70 1
  74   39   71 1
  75   39   72 1
  76   40   41 1
  77   41   73 1
  78   41   74 1
  79   41   75 1

#	End of record

