#	Name: ASD01882572
#	Creating user name:	WinNT
#	Creation time:	15. 06. 2019 19:44

#	Modifying user name:	WinNT
#	Modification time:	15. 06. 2019 19:44

#	Program:	/corina/corina34_cracker 3.40 0067  02.08.2006

@<TRIPOS>MOLECULE
ASD01882572
  58   62    0    0    0
SMALL
NO_CHARGES


@<TRIPOS>ATOM
   1 C1             1.5386     1.5513    -1.0711 C.2     
   2 C2             1.6412     0.0925    -1.1356 C.2     
   3 C3             1.2465    -0.6462    -0.0133 C.2     
   4 C4             0.7706     0.0359     1.1229 C.2     
   5 C5             0.6902     1.3797     1.1446 C.2     
   6 N6             1.0636     2.1390     0.0757 N.pl3   
   7 N7             1.5462     3.6580    -1.3728 N.2     
   8 N8             1.8192     2.5235    -1.9157 N.2     
   9 C9             1.0850     3.4827    -0.1631 C.2     
  10 C10            2.1307    -0.5603    -2.3124 C.1     
  11 N11            2.5191    -1.0781    -3.2460 N.1     
  12 N12            1.3225    -2.0264    -0.0210 N.pl3   
  13 C13            2.6184    -2.7104    -0.1471 C.3     
  14 C14            2.7352    -3.7433     0.9788 C.3     
  15 N15            1.5616    -4.6264     0.9525 N.3     
  16 C16            0.3251    -3.8773     1.2129 C.3     
  17 C17            0.1101    -2.8499     0.1028 C.3     
  18 C18            1.7156    -5.7352     1.9037 C.3     
  19 C19            0.4273    -6.5597     1.9388 C.3     
  20 C20            0.5877    -7.7146     2.9295 C.3     
  21 C21            1.7515    -8.6054     2.4903 C.3     
  22 C22            3.0399    -7.7809     2.4551 C.3     
  23 C23            2.8794    -6.6260     1.4644 C.3     
  24 C24            1.9120    -9.7602     3.4810 C.3     
  25 F25            0.7339   -10.5142     3.5131 F       
  26 F26            2.9761   -10.5748     3.0794 F       
  27 F27            2.1726    -9.2477     4.7564 F       
  28 C28            0.6570     4.5654     0.7937 C.3     
  29 C29            1.8557     5.0030     1.6378 C.3     
  30 C30            1.6544     6.1807     2.5935 C.3     
  31 C31            1.7835     4.7601     3.1467 C.3     
  32 H32            0.4646    -0.5283     1.9915 H       
  33 H33            0.3197     1.8694     2.0330 H       
  34 H34            2.6747    -3.2132    -1.1126 H       
  35 H35            3.4260    -1.9833    -0.0621 H       
  36 H36            3.6392    -4.3355     0.8368 H       
  37 H37            2.7830    -3.2305     1.9394 H       
  38 H38           -0.5188    -4.5667     1.2407 H       
  39 H39            0.4064    -3.3626     2.1703 H       
  40 H40           -0.7399    -2.2149     0.3528 H       
  41 H41           -0.0794    -3.3663    -0.8382 H       
  42 H42            1.9187    -5.3359     2.8974 H       
  43 H43           -0.4018    -5.9251     2.2518 H       
  44 H44            0.2242    -6.9591     0.9451 H       
  45 H45            0.7908    -7.3153     3.9232 H       
  46 H46           -0.3301    -8.3020     2.9546 H       
  47 H47            1.5485    -9.0047     1.4966 H       
  48 H48            3.2429    -7.3816     3.4488 H       
  49 H49            3.8690    -8.4155     2.1422 H       
  50 H50            2.6764    -7.0254     0.4707 H       
  51 H51            3.7973    -6.0386     1.4394 H       
  52 H52            0.2781     5.4186     0.2310 H       
  53 H53           -0.1275     4.1837     1.4470 H       
  54 H54            2.8295     4.9050     1.1580 H       
  55 H55            2.4959     6.8573     2.7427 H       
  56 H56            0.6680     6.6438     2.6209 H       
  57 H57            0.8821     4.2885     3.5380 H       
  58 H58            2.7099     4.5020     3.6598 H       
@<TRIPOS>BOND
   1    1    2 1
   2    1    6 1
   3    1    8 2
   4    2    3 2
   5    2   10 1
   6    3    4 1
   7    3   12 1
   8    4    5 2
   9    4   32 1
  10    5    6 1
  11    5   33 1
  12    6    9 1
  13    7    8 1
  14    7    9 2
  15    9   28 1
  16   10   11 3
  17   12   13 1
  18   12   17 1
  19   13   14 1
  20   13   34 1
  21   13   35 1
  22   14   15 1
  23   14   36 1
  24   14   37 1
  25   15   16 1
  26   15   18 1
  27   16   17 1
  28   16   38 1
  29   16   39 1
  30   17   40 1
  31   17   41 1
  32   18   19 1
  33   18   23 1
  34   18   42 1
  35   19   20 1
  36   19   43 1
  37   19   44 1
  38   20   21 1
  39   20   45 1
  40   20   46 1
  41   21   22 1
  42   21   24 1
  43   21   47 1
  44   22   23 1
  45   22   48 1
  46   22   49 1
  47   23   50 1
  48   23   51 1
  49   24   25 1
  50   24   26 1
  51   24   27 1
  52   28   29 1
  53   28   52 1
  54   28   53 1
  55   29   30 1
  56   29   31 1
  57   29   54 1
  58   30   31 1
  59   30   55 1
  60   30   56 1
  61   31   57 1
  62   31   58 1

#	End of record

