#	Name: ASD02038853
#	Creating user name:	WinNT
#	Creation time:	15. 06. 2019 20:17

#	Modifying user name:	WinNT
#	Modification time:	15. 06. 2019 20:17

#	Program:	/corina/corina34_cracker 3.40 0067  02.08.2006

@<TRIPOS>MOLECULE
ASD02038853
  46   48    0    0    0
SMALL
NO_CHARGES


@<TRIPOS>ATOM
   1 C1            -1.2801    -0.8494     0.4551 C.2     
   2 C2            -0.0628    -0.0351     0.2954 C.2     
   3 N3             1.1357    -0.6352     0.1536 N.am    
   4 C4             1.2413    -2.0929     0.2540 C.3     
   5 C5             1.2199    -2.6945    -1.1276 C.ar    
   6 C6             2.4060    -3.0177    -1.7591 C.ar    
   7 C7             2.3863    -3.5695    -3.0266 C.ar    
   8 C8             1.1804    -3.7984    -3.6620 C.ar    
   9 C9            -0.0062    -3.4759    -3.0299 C.ar    
  10 C10            0.0134    -2.9283    -1.7611 C.ar    
  11 C11            2.3327     0.1702    -0.1009 C.3     
  12 C12            2.1141     1.0132    -1.3538 C.3     
  13 C13            3.4355     1.6498    -1.7923 C.3     
  14 S14            4.0067     2.7760    -0.4851 S.3     
  15 C15            3.9895     1.7029     0.9818 C.3     
  16 C16            2.6057     1.0603     1.1080 C.3     
  17 O17           -0.1393     1.1787     0.2914 O.2     
  18 N18           -1.3399    -2.2052     0.4884 N.2     
  19 C19           -2.5805    -2.5682     0.6422 C.2     
  20 N20           -3.3606    -1.4583     0.7130 N.pl3   
  21 C21           -2.5518    -0.3782     0.6025 C.2     
  22 C22           -4.8153    -1.4343     0.8847 C.3     
  23 C23           -1.3210    -3.7250    -3.7230 C.3     
  24 F24           -1.0851    -4.2832    -4.9839 F       
  25 F25           -2.0910    -4.6082    -2.9586 F       
  26 F26           -2.0074    -2.5149    -3.8697 F       
  27 H27            2.1753    -2.3562     0.7504 H       
  28 H28            0.4015    -2.4792     0.8315 H       
  29 H29            3.3483    -2.8388    -1.2626 H       
  30 H30            3.3132    -3.8214    -3.5204 H       
  31 H31            1.1651    -4.2288    -4.6524 H       
  32 H32           -0.9135    -2.6764    -1.2673 H       
  33 H33            3.1841    -0.4920    -0.2578 H       
  34 H34            1.7345     0.3790    -2.1549 H       
  35 H35            1.3879     1.7974    -1.1401 H       
  36 H36            4.1803     0.8707    -1.9542 H       
  37 H37            3.2828     2.2093    -2.7152 H       
  38 H38            4.7451     0.9248     0.8739 H       
  39 H39            4.1988     2.2970     1.8713 H       
  40 H40            1.8474     1.8414     1.1609 H       
  41 H41            2.5675     0.4588     2.0162 H       
  42 H42           -2.9328    -3.5873     0.7033 H       
  43 H43           -2.8561     0.6579     0.6201 H       
  44 H44           -5.0553    -1.4081     1.9476 H       
  45 H45           -5.2240    -0.5487     0.3980 H       
  46 H46           -5.2489    -2.3281     0.4361 H       
@<TRIPOS>BOND
   1    1    2 1
   2    1   18 1
   3    1   21 2
   4    2    3 am
   5    2   17 2
   6    3    4 1
   7    3   11 1
   8    4    5 1
   9    4   27 1
  10    4   28 1
  11    5    6 ar
  12    5   10 ar
  13    6    7 ar
  14    6   29 1
  15    7    8 ar
  16    7   30 1
  17    8    9 ar
  18    8   31 1
  19    9   10 ar
  20    9   23 1
  21   10   32 1
  22   11   12 1
  23   11   16 1
  24   11   33 1
  25   12   13 1
  26   12   34 1
  27   12   35 1
  28   13   14 1
  29   13   36 1
  30   13   37 1
  31   14   15 1
  32   15   16 1
  33   15   38 1
  34   15   39 1
  35   16   40 1
  36   16   41 1
  37   18   19 2
  38   19   20 1
  39   19   42 1
  40   20   21 1
  41   20   22 1
  42   21   43 1
  43   22   44 1
  44   22   45 1
  45   22   46 1
  46   23   24 1
  47   23   25 1
  48   23   26 1

#	End of record

