#	Name: ASD03320002
#	Creating user name:	WinNT
#	Creation time:	15. 06. 2019 20:35

#	Modifying user name:	WinNT
#	Modification time:	15. 06. 2019 20:35

#	Program:	/corina/corina34_cracker 3.40 0067  02.08.2006

@<TRIPOS>MOLECULE
ASD03320002
  40   42    0    0    0
SMALL
NO_CHARGES


@<TRIPOS>ATOM
   1 C1            -3.4584    -4.8548    -0.6801 C.ar    
   2 C2            -4.3687    -4.0634    -1.3651 C.ar    
   3 C3            -4.4160    -2.7034    -1.1301 C.ar    
   4 C4            -3.5521    -2.1282    -0.2075 C.ar    
   5 C5            -2.6414    -2.9212     0.4782 C.ar    
   6 C6            -2.5990    -4.2818     0.2458 C.ar    
   7 O7            -3.4122    -6.1939    -0.9124 O.3     
   8 N8            -3.5991    -0.7493     0.0310 N.pl3   
   9 C9            -4.8050    -0.0710    -0.0585 C.ar    
  10 N10           -5.9410    -0.7360    -0.2524 N.ar    
  11 C11           -7.0920    -0.0999    -0.3383 C.ar    
  12 N12           -7.1736     1.2101    -0.2376 N.ar    
  13 C13           -6.0819     1.9512    -0.0427 C.ar    
  14 C14           -4.8460     1.3179     0.0592 C.ar    
  15 C15           -6.1834     3.4269     0.0690 C.ar    
  16 C16           -2.4504    -6.9479    -0.1719 C.3     
  17 F17           -2.7053    -6.8125     1.1970 F       
  18 F18           -2.5386    -8.2971    -0.5313 F       
  19 F19           -1.1658    -6.4725    -0.4563 F       
  20 C20           -7.4234     4.0492    -0.0294 C.ar    
  21 C21           -7.5110     5.4363     0.0765 C.ar    
  22 C22           -6.3546     6.1917     0.2805 C.ar    
  23 C23           -5.1273     5.5668     0.3771 C.ar    
  24 C24           -5.0361     4.1922     0.2786 C.ar    
  25 C25           -8.8251     6.1061    -0.0274 C.2     
  26 N26           -8.9078     7.4474     0.0753 N.am    
  27 O27           -9.8308     5.4470    -0.2053 O.2     
  28 H28           -5.0405    -4.5110    -2.0826 H       
  29 H29           -5.1244    -2.0873    -1.6640 H       
  30 H30           -1.9690    -2.4745     1.1956 H       
  31 H31           -1.8908    -4.8987     0.7790 H       
  32 H32           -2.7880    -0.2686     0.2588 H       
  33 H33           -7.9953    -0.6704    -0.4964 H       
  34 H34           -3.9423     1.8879     0.2170 H       
  35 H35           -8.3147     3.4601    -0.1875 H       
  36 H36           -6.4202     7.2666     0.3625 H       
  37 H37           -4.2352     6.1549     0.5345 H       
  38 H38           -4.0732     3.7093     0.3553 H       
  39 H39           -8.1053     7.9734     0.2173 H       
  40 H40           -9.7699     7.8868     0.0071 H       
@<TRIPOS>BOND
   1    1    2 ar
   2    1    7 1
   3    1    6 ar
   4    2    3 ar
   5    2   28 1
   6    3    4 ar
   7    3   29 1
   8    4    5 ar
   9    4    8 1
  10    5    6 ar
  11    5   30 1
  12    6   31 1
  13    7   16 1
  14    8    9 1
  15    8   32 1
  16    9   10 ar
  17    9   14 ar
  18   10   11 ar
  19   11   12 ar
  20   11   33 1
  21   12   13 ar
  22   13   14 ar
  23   13   15 1
  24   14   34 1
  25   15   20 ar
  26   15   24 ar
  27   16   17 1
  28   16   18 1
  29   16   19 1
  30   20   21 ar
  31   20   35 1
  32   21   22 ar
  33   21   25 1
  34   22   23 ar
  35   22   36 1
  36   23   24 ar
  37   23   37 1
  38   24   38 1
  39   25   26 am
  40   25   27 2
  41   26   39 1
  42   26   40 1

#	End of record

