#	Name: ASD02198384
#	Creating user name:	WinNT
#	Creation time:	15. 06. 2019 20:19

#	Modifying user name:	WinNT
#	Modification time:	15. 06. 2019 20:19

#	Program:	/corina/corina34_cracker 3.40 0067  02.08.2006

@<TRIPOS>MOLECULE
ASD02198384
  29   31    0    0    0
SMALL
NO_CHARGES


@<TRIPOS>ATOM
   1 C1            -0.2219     1.0436    -0.3584 C.2     
   2 C2            -0.1228    -0.2881    -0.3734 C.2     
   3 S3             1.3824     1.7528    -0.2287 S.3     
   4 C4             2.1194     0.1561    -0.2014 C.2     
   5 C5             1.1704    -0.7770    -0.2867 C.2     
   6 S6             3.8482    -0.1621    -0.0808 S.o2    
   7 N7             4.4442    -0.2239    -1.6246 N.am    
   8 C8             4.3262     0.8844    -2.4623 C.ar    
   9 C9             4.0923     0.7102    -3.8442 C.ar    
  10 C10            3.9762     1.8539    -4.6714 C.ar    
  11 C11            4.0951     3.1351    -4.1095 C.ar    
  12 C12            4.3212     3.2727    -2.7735 C.ar    
  13 C13            4.4313     2.1583    -1.9474 C.ar    
  14 N14            3.9806    -0.5100    -4.3756 N.ar    
  15 C15            3.7639    -0.6781    -5.6575 C.ar    
  16 C16            3.6399     0.4032    -6.5275 C.ar    
  17 C17            3.7429     1.6781    -6.0489 C.ar    
  18 O18            4.4260     0.9852     0.5267 O.2     
  19 O19            3.9787    -1.4728     0.4525 O.2     
  20 Cl20          -1.5085    -1.3270    -0.4920 Cl      
  21 Cl21          -1.7064     1.9379    -0.4589 Cl      
  22 H22            1.3931    -1.8338    -0.2878 H       
  23 H23            4.8753    -1.0312    -1.9461 H       
  24 H24            4.0078     4.0105    -4.7360 H       
  25 H25            4.4119     4.2613    -2.3482 H       
  26 H26            4.6103     2.2932    -0.8909 H       
  27 H27            3.6795    -1.6809    -6.0496 H       
  28 H28            3.4621     0.2333    -7.5791 H       
  29 H29            3.6491     2.5278    -6.7088 H       
@<TRIPOS>BOND
   1    1    2 2
   2    1    3 1
   3    1   21 1
   4    2   20 1
   5    2    5 1
   6    3    4 1
   7    4    5 2
   8    4    6 1
   9    5   22 1
  10    6    7 am
  11    6   18 2
  12    6   19 2
  13    7    8 1
  14    7   23 1
  15    8    9 ar
  16    8   13 ar
  17    9   10 ar
  18    9   14 ar
  19   10   11 ar
  20   10   17 ar
  21   11   12 ar
  22   11   24 1
  23   12   13 ar
  24   12   25 1
  25   13   26 1
  26   14   15 ar
  27   15   16 ar
  28   15   27 1
  29   16   17 ar
  30   16   28 1
  31   17   29 1

#	End of record

