#	Name: ASD03240992
#	Creating user name:	WinNT
#	Creation time:	15. 06. 2019 20:35

#	Modifying user name:	WinNT
#	Modification time:	15. 06. 2019 20:35

#	Program:	/corina/corina34_cracker 3.40 0067  02.08.2006

@<TRIPOS>MOLECULE
ASD03240992
  57   62    0    0    0
SMALL
NO_CHARGES


@<TRIPOS>ATOM
   1 C1            -0.0188     1.5336     0.0105 C.3     
   2 C2             0.0021    -0.0041     0.0020 C.3     
   3 C3             1.3815     0.0967    -0.6702 C.3     
   4 C4             1.5179     1.4762    -0.0045 C.3     
   5 O5            -0.5818     2.1049    -1.1721 O.3     
   6 C6             2.3746    -0.9181    -0.1653 C.ar    
   7 C7             3.3681    -1.3872    -1.0061 C.ar    
   8 C8             4.2804    -2.3163    -0.5497 C.ar    
   9 C9             4.1994    -2.7826     0.7625 C.ar    
  10 C10            3.1954    -2.3058     1.6054 C.ar    
  11 C11            2.2926    -1.3725     1.1389 C.ar    
  12 N12            6.9693    -6.5934    -0.0347 N.pl3   
  13 C13            7.8707    -7.5254     0.4037 C.2     
  14 N14            8.3275    -7.5355     1.6685 N.2     
  15 C15            7.9371    -6.6554     2.5540 C.2     
  16 C16            6.9751    -5.6288     2.1585 C.ar    
  17 C17            6.5197    -4.6611     3.0602 C.ar    
  18 C18            5.6034    -3.7212     2.5993 C.ar    
  19 C19            5.1750    -3.7802     1.2585 C.ar    
  20 N20            5.6287    -4.7118     0.4337 N.ar    
  21 C21            6.4997    -5.6237     0.8298 C.ar    
  22 C22            8.1489    -8.3517    -0.6766 C.2     
  23 C23            7.4033    -7.8994    -1.7580 C.2     
  24 N24            6.6973    -6.8601    -1.3820 N.2     
  25 C25            4.0983    -1.9916     5.5804 C.ar    
  26 C26            4.5711    -3.0001     4.7664 C.ar    
  27 C27            5.0839    -2.6715     3.5076 C.ar    
  28 C28            5.0935    -1.3252     3.1295 C.ar    
  29 C29            4.6008    -0.3806     4.0058 C.ar    
  30 N30            4.1256    -0.7332     5.1850 N.ar    
  31 C31            7.4015    -8.5074    -3.1369 C.3     
  32 C32           -0.5973     2.1316     1.2944 C.3     
  33 N33            1.3186     0.1546    -2.1367 N.3     
  34 H34            0.0329    -0.4458     0.9980 H       
  35 H35           -0.7629    -0.4476    -0.6353 H       
  36 H36            1.9766     2.2276    -0.6471 H       
  37 H37            1.9632     1.4391     0.9897 H       
  38 H38           -0.5977     3.0718    -1.1727 H       
  39 H39            3.4295    -1.0257    -2.0219 H       
  40 H40            5.0553    -2.6821    -1.2071 H       
  41 H41            3.1277    -2.6631     2.6223 H       
  42 H42            1.5175    -0.9993     1.7918 H       
  43 H43            8.3200    -6.6872     3.5633 H       
  44 H44            6.8682    -4.6444     4.0822 H       
  45 H45            8.8243    -9.1945    -0.6765 H       
  46 H46            3.6962    -2.2360     6.5525 H       
  47 H47            4.5461    -4.0281     5.0966 H       
  48 H48            5.4813    -1.0294     2.1659 H       
  49 H49            4.6043     0.6617     3.7228 H       
  50 H50            6.6280    -9.2732    -3.1953 H       
  51 H51            7.2012    -7.7316    -3.8759 H       
  52 H52            8.3740    -8.9573    -3.3369 H       
  53 H53            0.0010     1.8098     2.1469 H       
  54 H54           -0.5800     3.2195     1.2285 H       
  55 H55           -1.6249     1.7917     1.4227 H       
  56 H56            2.2430     0.2199    -2.5360 H       
  57 H57            0.8193    -0.6393    -2.5089 H       
@<TRIPOS>BOND
   1    1    2 1
   2    1    4 1
   3    1    5 1
   4    1   32 1
   5    2    3 1
   6    2   34 1
   7    2   35 1
   8    3    4 1
   9    3    6 1
  10    3   33 1
  11    4   36 1
  12    4   37 1
  13    5   38 1
  14    6    7 ar
  15    6   11 ar
  16    7    8 ar
  17    7   39 1
  18    8    9 ar
  19    8   40 1
  20    9   10 ar
  21    9   19 1
  22   10   11 ar
  23   10   41 1
  24   11   42 1
  25   12   13 1
  26   12   21 1
  27   12   24 1
  28   13   14 1
  29   13   22 2
  30   14   15 2
  31   15   16 1
  32   15   43 1
  33   16   17 ar
  34   16   21 ar
  35   17   18 ar
  36   17   44 1
  37   18   19 ar
  38   18   27 1
  39   19   20 ar
  40   20   21 ar
  41   22   23 1
  42   22   45 1
  43   23   24 2
  44   23   31 1
  45   25   26 ar
  46   25   30 ar
  47   25   46 1
  48   26   27 ar
  49   26   47 1
  50   27   28 ar
  51   28   29 ar
  52   28   48 1
  53   29   30 ar
  54   29   49 1
  55   31   50 1
  56   31   51 1
  57   31   52 1
  58   32   53 1
  59   32   54 1
  60   32   55 1
  61   33   56 1
  62   33   57 1

#	End of record

