#	Name: ASD07930117
#	Creating user name:	WinNT
#	Creation time:	15. 06. 2019 21:11

#	Modifying user name:	WinNT
#	Modification time:	15. 06. 2019 21:11

#	Program:	/corina/corina34_cracker 3.40 0067  02.08.2006

@<TRIPOS>MOLECULE
ASD07930117
  49   52    0    0    0
SMALL
NO_CHARGES


@<TRIPOS>ATOM
   1 C1            -0.0180     1.4739     0.0101 C.2     
   2 C2             0.0021    -0.0041     0.0020 C.2     
   3 N3             1.1827     2.1498     0.0023 N.am    
   4 N4             1.1184    -0.6406     0.4298 N.am    
   5 C5             2.2489     0.1636     0.9153 C.3     
   6 C6             2.4270     1.3683    -0.0208 C.3     
   7 C7            -1.2128     2.1508     0.0196 C.2     
   8 C8            -1.2390     3.5471     0.0297 C.2     
   9 C9            -0.0416     4.2489     0.0307 C.2     
  10 C10            1.2192     3.4936     0.0141 C.2     
  11 O11           -0.9642    -0.6356    -0.3806 O.2     
  12 O12            2.2875     4.0799     0.0116 O.2     
  13 S13            0.5667     6.7673    -1.2421 S.3     
  14 C14            0.1546     8.1489    -0.3236 C.2     
  15 N15           -0.3689     7.8001     0.8052 N.2     
  16 C16           -0.4891     6.5146     1.0423 C.2     
  17 C17           -0.0345     5.7214     0.0422 C.2     
  18 C18            0.3714     9.5726    -0.7675 C.3     
  19 C19            1.1975    -2.1033     0.4094 C.3     
  20 C20            1.7645    -2.5647    -0.9346 C.3     
  21 O21            3.1136    -2.1114    -1.0633 O.3     
  22 C22            3.7680    -2.4389    -2.2088 C.ar    
  23 C23            5.0803    -2.0312    -2.3998 C.ar    
  24 C24            5.7438    -2.3653    -3.5642 C.ar    
  25 C25            5.1004    -3.1063    -4.5400 C.ar    
  26 C26            3.7917    -3.5134    -4.3515 C.ar    
  27 C27            3.1266    -3.1860    -3.1856 C.ar    
  28 C28            5.7813    -1.2238    -1.3378 C.3     
  29 F29            7.0846    -0.9346    -1.7560 F       
  30 F30            5.0844    -0.0297    -1.1239 F       
  31 F31            5.8255    -1.9576    -0.1475 F       
  32 Cl32           5.9365    -3.5251    -6.0027 Cl      
  33 H33            2.0422     0.5131     1.9268 H       
  34 H34            3.1563    -0.4404     0.9116 H       
  35 H35            2.6250     1.0208    -1.0347 H       
  36 H36            3.2559     1.9851     0.3264 H       
  37 H37           -2.1407     1.5982     0.0188 H       
  38 H38           -2.1811     4.0751     0.0363 H       
  39 H39           -0.9129     6.1232     1.9554 H       
  40 H40           -0.5095     9.9237    -1.3050 H       
  41 H41            0.5401    10.2036     0.1051 H       
  42 H42            1.2403     9.6203    -1.4238 H       
  43 H43            1.8489    -2.4432     1.2145 H       
  44 H44            0.2009    -2.5230     0.5466 H       
  45 H45            1.7407    -3.6533    -0.9845 H       
  46 H46            1.1633    -2.1507    -1.7440 H       
  47 H47            6.7653    -2.0478    -3.7135 H       
  48 H48            3.2912    -4.0913    -5.1143 H       
  49 H49            2.1065    -3.5081    -3.0367 H       
@<TRIPOS>BOND
   1    1    2 1
   2    1    3 1
   3    1    7 2
   4    2    4 am
   5    2   11 2
   6    3    6 1
   7    3   10 am
   8    4    5 1
   9    4   19 1
  10    5    6 1
  11    5   33 1
  12    5   34 1
  13    6   35 1
  14    6   36 1
  15    7    8 1
  16    7   37 1
  17    8    9 2
  18    8   38 1
  19    9   10 1
  20    9   17 1
  21   10   12 2
  22   13   14 1
  23   13   17 1
  24   14   15 2
  25   14   18 1
  26   15   16 1
  27   16   17 2
  28   16   39 1
  29   18   40 1
  30   18   41 1
  31   18   42 1
  32   19   20 1
  33   19   43 1
  34   19   44 1
  35   20   21 1
  36   20   45 1
  37   20   46 1
  38   21   22 1
  39   22   23 ar
  40   22   27 ar
  41   23   24 ar
  42   23   28 1
  43   24   25 ar
  44   24   47 1
  45   25   26 ar
  46   25   32 1
  47   26   27 ar
  48   26   48 1
  49   27   49 1
  50   28   29 1
  51   28   30 1
  52   28   31 1

#	End of record

