#	Name: ASD01915234
#	Creating user name:	WinNT
#	Creation time:	15. 06. 2019 20:05

#	Modifying user name:	WinNT
#	Modification time:	15. 06. 2019 20:05

#	Program:	/corina/corina34_cracker 3.40 0067  02.08.2006

@<TRIPOS>MOLECULE
ASD01915234
  30   31    0    0    0
SMALL
NO_CHARGES


@<TRIPOS>ATOM
   1 C1            -0.0077     1.3435    -0.1944 C.ar    
   2 C2             0.0216    -0.0349     0.0276 C.ar    
   3 C3            -1.1556    -0.7608     0.0435 C.ar    
   4 C4            -2.3676    -0.1271    -0.1599 C.ar    
   5 C5            -2.4092     1.2516    -0.3824 C.ar    
   6 C6            -1.2266     1.9887    -0.3938 C.ar    
   7 F7            -1.1212    -2.0942     0.2583 F       
   8 C8             1.2515     2.1178    -0.2117 C.2     
   9 N9             2.4293     1.4934    -0.0131 N.am    
  10 O10            1.2247     3.3177    -0.4049 O.2     
  11 C11            3.6268     2.2068    -0.1263 C.ar    
  12 C12            3.6893     3.5314     0.2862 C.ar    
  13 C13            4.8736     4.2332     0.1731 C.ar    
  14 C14            5.9959     3.6186    -0.3507 C.ar    
  15 C15            5.9369     2.2997    -0.7629 C.ar    
  16 C16            4.7578     1.5904    -0.6463 C.ar    
  17 C17            7.1623     1.6340    -1.3340 C.3     
  18 F18            8.2249     2.5441    -1.3452 F       
  19 F19            7.5029     0.5292    -0.5463 F       
  20 F20            6.8969     1.2109    -2.6408 F       
  21 C21           -3.6650     1.9068    -0.5929 C.1     
  22 N22           -4.6612     2.4266    -0.7599 N.1     
  23 H23            0.9655    -0.5351     0.1867 H       
  24 H24           -3.2837    -0.6990    -0.1471 H       
  25 H25           -1.2539     3.0547    -0.5650 H       
  26 H26            2.4464     0.5492     0.2083 H       
  27 H27            2.8128     4.0123     0.6948 H       
  28 H28            4.9229     5.2634     0.4937 H       
  29 H29            6.9206     4.1696    -0.4384 H       
  30 H30            4.7124     0.5605    -0.9683 H       
@<TRIPOS>BOND
   1    1    2 ar
   2    1    8 1
   3    1    6 ar
   4    2    3 ar
   5    2   23 1
   6    3    4 ar
   7    3    7 1
   8    4    5 ar
   9    4   24 1
  10    5    6 ar
  11    5   21 1
  12    6   25 1
  13    8    9 am
  14    8   10 2
  15    9   11 1
  16    9   26 1
  17   11   12 ar
  18   11   16 ar
  19   12   13 ar
  20   12   27 1
  21   13   14 ar
  22   13   28 1
  23   14   15 ar
  24   14   29 1
  25   15   16 ar
  26   15   17 1
  27   16   30 1
  28   17   18 1
  29   17   19 1
  30   17   20 1
  31   21   22 3

#	End of record

