#	Name: ASD03730160
#	Creating user name:	WinNT
#	Creation time:	15. 06. 2019 20:44

#	Modifying user name:	WinNT
#	Modification time:	15. 06. 2019 20:44

#	Program:	/corina/corina34_cracker 3.40 0067  02.08.2006

@<TRIPOS>MOLECULE
ASD03730160
  44   47    0    0    0
SMALL
NO_CHARGES


@<TRIPOS>ATOM
   1 O1            -0.0175     1.4361     0.0099 O.3     
   2 C2             0.0021    -0.0041     0.0020 C.3     
   3 C3             1.3449    -0.3158    -0.6730 C.3     
   4 C4             2.1584     0.9230    -0.4105 C.ar    
   5 C5             1.2621     1.9059     0.0002 C.ar    
   6 C6             1.7498     3.1672     0.3282 C.ar    
   7 C7             3.1002     3.4392     0.2358 C.ar    
   8 C8             3.9825     2.4570    -0.1838 C.ar    
   9 C9             3.5053     1.1974    -0.5055 C.ar    
  10 N10            2.1546    -2.4041    -1.1288 N.am    
  11 C11            1.9840    -1.5486    -0.1012 C.2     
  12 C12            1.1842    -0.5942    -2.1380 C.ar    
  13 C13            0.6724     0.1275    -3.1933 C.ar    
  14 C14            0.6624    -0.4167    -4.4651 C.ar    
  15 C15            1.1678    -1.6870    -4.6743 C.ar    
  16 C16            1.6817    -2.4139    -3.6208 C.ar    
  17 C17            1.6957    -1.8740    -2.3370 C.ar    
  18 O18            2.2872    -1.7373     1.0579 O.2     
  19 C19            2.7517    -3.7351    -0.9941 C.3     
  20 C20            1.6541    -4.7590    -0.6979 C.3     
  21 C21            2.2777    -6.1490    -0.5573 C.3     
  22 C22            1.1801    -7.1729    -0.2611 C.3     
  23 C23            1.8037    -8.5629    -0.1205 C.3     
  24 F24            5.3030     2.7266    -0.2781 F       
  25 Cl25           3.6945     5.0178     0.6463 Cl      
  26 H26           -0.0204    -0.3969     1.0185 H       
  27 H27           -0.8270    -0.3991    -0.5851 H       
  28 H28            1.0680     3.9378     0.6565 H       
  29 H29            4.1902     0.4287    -0.8319 H       
  30 H30            0.2780     1.1193    -3.0277 H       
  31 H31            0.2607     0.1490    -5.2928 H       
  32 H32            1.1595    -2.1120    -5.6671 H       
  33 H33            2.0740    -3.4055    -3.7918 H       
  34 H34            3.2569    -4.0023    -1.9223 H       
  35 H35            3.4729    -3.7288    -0.1768 H       
  36 H36            1.1489    -4.4918     0.2302 H       
  37 H37            0.9330    -4.7653    -1.5153 H       
  38 H38            2.7829    -6.4162    -1.4855 H       
  39 H39            2.9988    -6.1427     0.2600 H       
  40 H40            0.6749    -6.9057     0.6671 H       
  41 H41            0.4589    -7.1792    -1.0785 H       
  42 H42            2.3089    -8.8301    -1.0487 H       
  43 H43            2.5248    -8.5566     0.6968 H       
  44 H44            1.0217    -9.2923     0.0905 H       
@<TRIPOS>BOND
   1    1    2 1
   2    1    5 1
   3    2    3 1
   4    2   26 1
   5    2   27 1
   6    3    4 1
   7    3   11 1
   8    3   12 1
   9    4    5 ar
  10    4    9 ar
  11    5    6 ar
  12    6    7 ar
  13    6   28 1
  14    7    8 ar
  15    7   25 1
  16    8    9 ar
  17    8   24 1
  18    9   29 1
  19   10   11 am
  20   10   17 1
  21   10   19 1
  22   11   18 2
  23   12   13 ar
  24   12   17 ar
  25   13   14 ar
  26   13   30 1
  27   14   15 ar
  28   14   31 1
  29   15   16 ar
  30   15   32 1
  31   16   17 ar
  32   16   33 1
  33   19   20 1
  34   19   34 1
  35   19   35 1
  36   20   21 1
  37   20   36 1
  38   20   37 1
  39   21   22 1
  40   21   38 1
  41   21   39 1
  42   22   23 1
  43   22   40 1
  44   22   41 1
  45   23   42 1
  46   23   43 1
  47   23   44 1

#	End of record

