#	Name: ASD03240608
#	Creating user name:	WinNT
#	Creation time:	15. 06. 2019 20:35

#	Modifying user name:	WinNT
#	Modification time:	15. 06. 2019 20:35

#	Program:	/corina/corina34_cracker 3.40 0067  02.08.2006

@<TRIPOS>MOLECULE
ASD03240608
  62   68    0    0    0
SMALL
NO_CHARGES


@<TRIPOS>ATOM
   1 C1             0.3611     2.7911    -2.3534 C.ar    
   2 C2             0.3896     1.7090    -3.2159 C.ar    
   3 N3             1.4390     0.9140    -3.2758 N.ar    
   4 C4             2.5096     1.1114    -2.5183 C.ar    
   5 C5             2.5508     2.1863    -1.6217 C.ar    
   6 C6             1.4553     3.0408    -1.5402 C.ar    
   7 N7             3.4760     0.1460    -2.7628 N.pl3   
   8 C8             4.7116     0.0129    -2.1809 C.ar    
   9 C9             5.3311     0.8507    -1.1539 C.ar    
  10 C10            4.8002     1.9978    -0.5191 C.2     
  11 N11            3.5589     2.5776    -0.7421 N.pl3   
  12 C12            5.4188    -1.0811    -2.6739 C.ar    
  13 C13            6.6789    -1.3499    -2.1883 C.ar    
  14 C14            7.2675    -0.5512    -1.2107 C.ar    
  15 C15            6.6203     0.5300    -0.6932 C.ar    
  16 N16            5.4643     2.6838     0.4094 N.2     
  17 C17            4.7331     3.7033     0.8284 C.2     
  18 C18            3.4557     3.6515     0.0721 C.2     
  19 C19            2.3585     4.5417     0.1814 C.ar    
  20 C20            1.3391     4.2986     1.1217 C.ar    
  21 C21            2.2828     5.6787    -0.6455 C.ar    
  22 C22            1.2168     6.5331    -0.5312 C.ar    
  23 C23            0.2151     6.2806     0.3948 C.ar    
  24 C24            0.2823     5.1665     1.2186 C.ar    
  25 C25            5.1110     4.6948     1.8452 C.ar    
  26 C26           -0.9517     7.2273     0.5110 C.3     
  27 C27            5.7716     4.2896     3.0150 C.ar    
  28 C28            6.1223     5.2259     3.9621 C.ar    
  29 C29            5.8243     6.5647     3.7627 C.ar    
  30 C30            5.1719     6.9745     2.6100 C.ar    
  31 C31            4.8187     6.0536     1.6495 C.ar    
  32 N32           -1.1125     8.0825    -0.6725 N.3     
  33 C33           -2.2551     6.5462     0.9605 C.3     
  34 C34           -2.5121     7.7885     1.8298 C.3     
  35 C35           -0.9888     7.9990     1.8406 C.3     
  36 N36            6.8191     4.8012     5.1968 N.pl3   
  37 O37            7.1028     3.5295     5.3886 O.2     
  38 O38            7.1554     5.6949     6.1038 O.2     
  39 H39           -0.5036     3.4372    -2.3176 H       
  40 H40           -0.4623     1.5127    -3.8501 H       
  41 H41            1.4576     3.8788    -0.8589 H       
  42 H42            3.2489    -0.5202    -3.4303 H       
  43 H43            4.9816    -1.7145    -3.4316 H       
  44 H44            7.2230    -2.1994    -2.5739 H       
  45 H45            8.2577    -0.7947    -0.8549 H       
  46 H46            7.0943     1.1369     0.0641 H       
  47 H47            1.3892     3.4317     1.7638 H       
  48 H48            3.0617     5.8773    -1.3668 H       
  49 H49            1.1567     7.4061    -1.1641 H       
  50 H50           -0.5031     4.9797     1.9360 H       
  51 H51            6.0040     3.2467     3.1724 H       
  52 H52            6.1017     7.2933     4.5101 H       
  53 H53            4.9438     8.0199     2.4633 H       
  54 H54            4.3105     6.3745     0.7522 H       
  55 H55           -0.2410     8.5281    -0.9177 H       
  56 H56           -1.4815     7.5570    -1.4509 H       
  57 H57           -2.9804     6.4179     0.1570 H       
  58 H58           -2.0953     5.6352     1.5373 H       
  59 H59           -3.0583     8.5776     1.3130 H       
  60 H60           -2.9279     7.5569     2.8104 H       
  61 H61           -0.4828     7.4852     2.6580 H       
  62 H62           -0.6917     9.0436     1.7476 H       
@<TRIPOS>BOND
   1    1    2 ar
   2    1    6 ar
   3    1   39 1
   4    2    3 ar
   5    2   40 1
   6    3    4 ar
   7    4    5 ar
   8    4    7 1
   9    5    6 ar
  10    5   11 1
  11    6   41 1
  12    7    8 1
  13    7   42 1
  14    8    9 ar
  15    8   12 ar
  16    9   10 1
  17    9   15 ar
  18   10   11 1
  19   10   16 2
  20   11   18 1
  21   12   13 ar
  22   12   43 1
  23   13   14 ar
  24   13   44 1
  25   14   15 ar
  26   14   45 1
  27   15   46 1
  28   16   17 1
  29   17   18 2
  30   17   25 1
  31   18   19 1
  32   19   20 ar
  33   19   21 ar
  34   20   24 ar
  35   20   47 1
  36   21   22 ar
  37   21   48 1
  38   22   23 ar
  39   22   49 1
  40   23   24 ar
  41   23   26 1
  42   24   50 1
  43   25   27 ar
  44   25   31 ar
  45   26   33 1
  46   26   32 1
  47   26   35 1
  48   27   28 ar
  49   27   51 1
  50   28   29 ar
  51   28   36 1
  52   29   30 ar
  53   29   52 1
  54   30   31 ar
  55   30   53 1
  56   31   54 1
  57   32   55 1
  58   32   56 1
  59   33   34 1
  60   33   57 1
  61   33   58 1
  62   34   35 1
  63   34   59 1
  64   34   60 1
  65   35   61 1
  66   35   62 1
  67   36   37 2
  68   36   38 2

#	End of record

