#	Name: ASD07300267
#	Creating user name:	WinNT
#	Creation time:	15. 06. 2019 21:09

#	Modifying user name:	WinNT
#	Modification time:	15. 06. 2019 21:09

#	Program:	/corina/corina34_cracker 3.40 0067  02.08.2006

@<TRIPOS>MOLECULE
ASD07300267
  40   42    0    0    0
SMALL
NO_CHARGES


@<TRIPOS>ATOM
   1 C1            -0.1071     1.5369    -0.0857 C.2     
   2 C2            -0.0024     0.0354    -0.0109 C.3     
   3 O3             0.8945     2.2103    -0.1404 O.2     
   4 O4            -1.3133     2.1258    -0.0973 O.3     
   5 C5             2.2196    -0.5192     1.0883 C.ar    
   6 C6             3.4805    -0.8975     0.5929 C.ar    
   7 C7             4.5182    -1.1398     1.4970 C.ar    
   8 C8             4.2549    -0.9953     2.8471 C.ar    
   9 C9             2.9874    -0.6195     3.2591 C.ar    
  10 N10            2.0222    -0.3956     2.3900 N.ar    
  11 C11            2.1665    -0.6297    -1.1234 C.2     
  12 N12            1.4091    -0.3567    -0.0192 N.pl3   
  13 N13            3.3856    -0.9421    -0.7606 N.2     
  14 N14            1.7154    -0.5789    -2.4265 N.pl3   
  15 C15            2.6103    -0.7680    -3.4839 C.ar    
  16 C16            2.1713    -1.3321    -4.6749 C.ar    
  17 C17            3.0578    -1.5171    -5.7176 C.ar    
  18 C18            4.3812    -1.1414    -5.5769 C.ar    
  19 C19            4.8215    -0.5795    -4.3925 C.ar    
  20 C20            3.9391    -0.3869    -3.3478 C.ar    
  21 N21            5.3287    -1.3416    -6.6964 N.pl3   
  22 O22            4.9425    -1.8367    -7.7400 O.2     
  23 O23            6.4947    -1.0112    -6.5739 O.2     
  24 C24           -1.3382     3.5757    -0.1707 C.3     
  25 C25           -2.7891     4.0614    -0.1733 C.3     
  26 H26           -0.4718    -0.3162     0.9079 H       
  27 H27           -0.5076    -0.4073    -0.8693 H       
  28 H28            5.4986    -1.4323     1.1510 H       
  29 H29            5.0324    -1.1746     3.5749 H       
  30 H30            2.7856    -0.5076     4.3142 H       
  31 H31            0.7774    -0.4120    -2.6090 H       
  32 H32            1.1380    -1.6261    -4.7853 H       
  33 H33            2.7172    -1.9560    -6.6437 H       
  34 H34            5.8557    -0.2872    -4.2859 H       
  35 H35            4.2827     0.0558    -2.4245 H       
  36 H36           -0.8172     3.9922     0.6913 H       
  37 H37           -0.8444     3.9017    -1.0861 H       
  38 H38           -3.3102     3.6449    -1.0353 H       
  39 H39           -3.2830     3.7354     0.7421 H       
  40 H40           -2.8078     5.1498    -0.2284 H       
@<TRIPOS>BOND
   1    1    2 1
   2    1    3 2
   3    1    4 1
   4    2   12 1
   5    2   26 1
   6    2   27 1
   7    4   24 1
   8    5    6 ar
   9    5   10 ar
  10    5   12 1
  11    6    7 ar
  12    6   13 1
  13    7    8 ar
  14    7   28 1
  15    8    9 ar
  16    8   29 1
  17    9   10 ar
  18    9   30 1
  19   11   12 1
  20   11   13 2
  21   11   14 1
  22   14   15 1
  23   14   31 1
  24   15   16 ar
  25   15   20 ar
  26   16   17 ar
  27   16   32 1
  28   17   18 ar
  29   17   33 1
  30   18   19 ar
  31   18   21 1
  32   19   20 ar
  33   19   34 1
  34   20   35 1
  35   21   22 2
  36   21   23 2
  37   24   25 1
  38   24   36 1
  39   24   37 1
  40   25   38 1
  41   25   39 1
  42   25   40 1

#	End of record

