#	Name: ASD01209234
#	Creating user name:	WinNT
#	Creation time:	15. 06. 2019 19:11

#	Modifying user name:	WinNT
#	Modification time:	15. 06. 2019 19:11

#	Program:	/corina/corina34_cracker 3.40 0067  02.08.2006

@<TRIPOS>MOLECULE
ASD01209234
  72   75    0    0    0
SMALL
NO_CHARGES


@<TRIPOS>ATOM
   1 O1            -3.3411     5.8651     1.4249 O.3     
   2 O2            -0.9310     5.3309     2.3296 O.3     
   3 C3             8.2117     8.7237     2.4803 C.ar    
   4 C4             8.1016     8.6147     3.8591 C.ar    
   5 C5             6.8570     8.4448     4.4483 C.ar    
   6 C6             5.7184     8.3834     3.6613 C.ar    
   7 C7             5.8248     8.4925     2.2745 C.ar    
   8 C8             7.0782     8.6690     1.6866 C.ar    
   9 O9             6.7547     8.3385     5.7992 O.3     
  10 C10            4.6128     8.4275     1.4308 C.2     
  11 N11            3.4028     8.2626     2.0010 N.am    
  12 O12            4.7075     8.5228     0.2226 O.2     
  13 C13            2.2640     8.2015     1.2081 C.2     
  14 P14           -1.7647     6.0528     1.1566 P.3     
  15 O15           -1.4103     5.4460    -0.1459 O.2     
  16 C16           -1.3604     7.8302     1.1290 C.3     
  17 N17            1.0565     8.0456     1.6536 N.2     
  18 S18            2.2498     8.3282    -0.4968 S.3     
  19 C19            0.4977     8.1439    -0.5064 C.2     
  20 C20            0.0888     8.0100     0.7568 C.2     
  21 O21            9.4333     8.8900     1.9082 O.3     
  22 C22           10.5592     8.9436     2.7866 C.3     
  23 C23            6.8024     7.0958     6.3468 C.ar    
  24 C24            6.5939     6.9278     7.7083 C.ar    
  25 C25            6.6425     5.6634     8.2624 C.ar    
  26 C26            6.8986     4.5657     7.4615 C.ar    
  27 C27            7.1067     4.7303     6.1045 C.ar    
  28 C28            7.0540     5.9920     5.5445 C.ar    
  29 S29            6.9605     2.9543     8.1716 S.o2    
  30 O30            7.8055     2.2185     7.2977 O.2     
  31 O31            7.3268     3.1818     9.5256 O.2     
  32 C32            5.2540     2.3478     8.0671 C.3     
  33 C33           11.8370     9.1332     1.9669 C.3     
  34 O34           12.0968     7.9574     1.1466 O.3     
  35 C35           13.2685     7.4172     1.4999 C.2     
  36 N36           13.8910     8.0722     2.4893 N.am    
  37 C37           13.0652     9.2205     2.8934 C.3     
  38 O38           13.7261     6.4228     0.9722 O.2     
  39 C39           -0.9495     3.9178     2.5413 C.3     
  40 C40           -0.0533     3.5686     3.7312 C.3     
  41 C41           -3.9885     4.5914     1.4006 C.3     
  42 C42           -5.4792     4.7713     1.6945 C.3     
  43 H43            8.9872     8.6618     4.4754 H       
  44 H44            4.7501     8.2504     4.1206 H       
  45 H45            7.1649     8.7540     0.6134 H       
  46 H46            3.3273     8.1865     2.9650 H       
  47 H47           -1.9892     8.3345     0.3953 H       
  48 H48           -1.5380     8.2586     2.1154 H       
  49 H49           -0.1352     8.1432    -1.3815 H       
  50 H50           10.4425     9.7796     3.4762 H       
  51 H51           10.6243     8.0134     3.3511 H       
  52 H52            6.3942     7.7849     8.3343 H       
  53 H53            6.4807     5.5321     9.3221 H       
  54 H54            7.3069     3.8713     5.4812 H       
  55 H55            7.2166     6.1201     4.4845 H       
  56 H56            4.9413     2.3208     7.0233 H       
  57 H57            5.1986     1.3443     8.4891 H       
  58 H58            4.5969     3.0139     8.6262 H       
  59 H59           11.7615    10.0246     1.3440 H       
  60 H60           14.7467     7.8289     2.8760 H       
  61 H61           13.6024    10.1547     2.7301 H       
  62 H62           12.7648     9.1277     3.9371 H       
  63 H63           -1.9698     3.5947     2.7478 H       
  64 H64           -0.5817     3.4118     1.6486 H       
  65 H65           -0.0674     2.4908     3.8927 H       
  66 H66            0.9670     3.8918     3.5247 H       
  67 H67           -0.4210     4.0746     4.6238 H       
  68 H68           -3.8642     4.1394     0.4166 H       
  69 H69           -3.5447     3.9438     2.1566 H       
  70 H70           -5.6035     5.2234     2.6786 H       
  71 H71           -5.9230     5.4190     0.9385 H       
  72 H72           -5.9730     3.7998     1.6759 H       
@<TRIPOS>BOND
   1    1   41 1
   2    1   14 1
   3    2   39 1
   4    2   14 1
   5    3    4 ar
   6    3   21 1
   7    3    8 ar
   8    4    5 ar
   9    4   43 1
  10    5    6 ar
  11    5    9 1
  12    6    7 ar
  13    6   44 1
  14    7    8 ar
  15    7   10 1
  16    8   45 1
  17    9   23 1
  18   10   11 am
  19   10   12 2
  20   11   13 1
  21   11   46 1
  22   13   17 2
  23   13   18 1
  24   14   15 2
  25   14   16 1
  26   16   20 1
  27   16   47 1
  28   16   48 1
  29   17   20 1
  30   18   19 1
  31   19   20 2
  32   19   49 1
  33   21   22 1
  34   22   33 1
  35   22   50 1
  36   22   51 1
  37   23   24 ar
  38   23   28 ar
  39   24   25 ar
  40   24   52 1
  41   25   26 ar
  42   25   53 1
  43   26   27 ar
  44   26   29 1
  45   27   28 ar
  46   27   54 1
  47   28   55 1
  48   29   30 2
  49   29   31 2
  50   29   32 1
  51   32   56 1
  52   32   57 1
  53   32   58 1
  54   33   34 1
  55   33   37 1
  56   33   59 1
  57   34   35 1
  58   35   36 am
  59   35   38 2
  60   36   37 1
  61   36   60 1
  62   37   61 1
  63   37   62 1
  64   39   40 1
  65   39   63 1
  66   39   64 1
  67   40   65 1
  68   40   66 1
  69   40   67 1
  70   41   42 1
  71   41   68 1
  72   41   69 1
  73   42   70 1
  74   42   71 1
  75   42   72 1

#	End of record

