#	Name: ASD02198770
#	Creating user name:	WinNT
#	Creation time:	15. 06. 2019 20:20

#	Modifying user name:	WinNT
#	Modification time:	15. 06. 2019 20:20

#	Program:	/corina/corina34_cracker 3.40 0067  02.08.2006

@<TRIPOS>MOLECULE
ASD02198770
  51   55    0    0    0
SMALL
NO_CHARGES


@<TRIPOS>ATOM
   1 C1            -0.0433     1.5018    -0.1149 C.2     
   2 C2            -0.0731     0.1621     0.0975 C.2     
   3 N3             1.0714    -0.5397     0.2599 N.pl3   
   4 N4             2.2359    -0.0049     0.2262 N.2     
   5 C5             2.4074     1.2846     0.0281 C.2     
   6 C6             1.2216     2.1357    -0.1604 C.2     
   7 C7             0.9799    -1.9178     0.4758 C.ar    
   8 C8             1.5822    -2.4892     1.5966 C.ar    
   9 C9             1.4911    -3.8533     1.8095 C.ar    
  10 C10            0.7978    -4.6528     0.9032 C.ar    
  11 C11            0.1973    -4.0770    -0.2159 C.ar    
  12 C12            0.2843    -2.7167    -0.4233 C.ar    
  13 C13            3.7644     1.8669    -0.0041 C.2     
  14 N14            4.3066     2.6070    -1.0171 N.pl3   
  15 N15            5.6085     2.9582    -0.6391 N.2     
  16 C16            5.8521     2.4584     0.5462 C.2     
  17 C17            4.7198     1.7713     0.9838 C.2     
  18 C18            3.6737     2.9519    -2.2181 C.ar    
  19 C19            3.8078     4.2352    -2.7316 C.ar    
  20 C20            3.1830     4.5721    -3.9163 C.ar    
  21 C21            2.4241     3.6333    -4.5908 C.ar    
  22 C22            2.2886     2.3546    -4.0820 C.ar    
  23 C23            2.9157     2.0098    -2.9007 C.ar    
  24 O24            1.3246     3.3388    -0.3483 O.2     
  25 C25            0.6988    -6.1157     1.1284 C.ar    
  26 C26            0.0061    -6.9278     0.2264 C.ar    
  27 C27           -0.0573    -8.2870     0.4817 C.ar    
  28 C28            0.5610    -8.7929     1.6103 C.ar    
  29 N29            1.2079    -8.0013     2.4440 N.ar    
  30 C30            1.3001    -6.7033     2.2400 C.ar    
  31 O31            2.2583    -1.7068     2.4787 O.3     
  32 C32            2.8499    -2.3595     3.6039 C.3     
  33 H33           -0.9546     2.0654    -0.2494 H       
  34 H34           -1.0229    -0.3503     0.1379 H       
  35 H35            1.9571    -4.2976     2.6765 H       
  36 H36           -0.3402    -4.6965    -0.9185 H       
  37 H37           -0.1817    -2.2727    -1.2905 H       
  38 H38            6.7755     2.5644     1.0962 H       
  39 H39            4.6138     1.2517     1.9247 H       
  40 H40            4.3998     4.9691    -2.2049 H       
  41 H41            3.2869     5.5700    -4.3161 H       
  42 H42            1.9359     3.8994    -5.5166 H       
  43 H43            1.6953     1.6236    -4.6111 H       
  44 H44            2.8098     1.0109    -2.5041 H       
  45 H45           -0.4680    -6.5057    -0.6473 H       
  46 H46           -0.5844    -8.9451    -0.1932 H       
  47 H47            0.5131    -9.8527     1.8127 H       
  48 H48            1.8387    -6.0876     2.9451 H       
  49 H49            3.5707    -3.0998     3.2568 H       
  50 H50            3.3572    -1.6223     4.2262 H       
  51 H51            2.0730    -2.8542     4.1868 H       
@<TRIPOS>BOND
   1    1    2 2
   2    1    6 1
   3    1   33 1
   4    2    3 1
   5    2   34 1
   6    3    4 1
   7    3    7 1
   8    4    5 2
   9    5    6 1
  10    5   13 1
  11    6   24 2
  12    7    8 ar
  13    7   12 ar
  14    8    9 ar
  15    8   31 1
  16    9   10 ar
  17    9   35 1
  18   10   11 ar
  19   10   25 1
  20   11   12 ar
  21   11   36 1
  22   12   37 1
  23   13   14 1
  24   13   17 2
  25   14   15 1
  26   14   18 1
  27   15   16 2
  28   16   17 1
  29   16   38 1
  30   17   39 1
  31   18   19 ar
  32   18   23 ar
  33   19   20 ar
  34   19   40 1
  35   20   21 ar
  36   20   41 1
  37   21   22 ar
  38   21   42 1
  39   22   23 ar
  40   22   43 1
  41   23   44 1
  42   25   26 ar
  43   25   30 ar
  44   26   27 ar
  45   26   45 1
  46   27   28 ar
  47   27   46 1
  48   28   29 ar
  49   28   47 1
  50   29   30 ar
  51   30   48 1
  52   31   32 1
  53   32   49 1
  54   32   50 1
  55   32   51 1

#	End of record

