#	Name: ASD00071028
#	Creating user name:	WinNT
#	Creation time:	15. 06. 2019 18:30

#	Modifying user name:	WinNT
#	Modification time:	15. 06. 2019 18:30

#	Program:	/corina/corina34_cracker 3.40 0067  02.08.2006

@<TRIPOS>MOLECULE
ASD00071028
  40   42    0    0    0
SMALL
NO_CHARGES


@<TRIPOS>ATOM
   1 N1             1.8334     1.2426    -1.2029 N.ar    
   2 C2             1.6396    -0.0601    -1.1902 C.ar    
   3 C3             1.3733    -0.7506     0.0011 C.ar    
   4 C4             1.3112    -0.0710     1.1801 C.ar    
   5 C5             1.5200     1.3230     1.1597 C.ar    
   6 C6             1.4705     2.0848     2.3382 C.ar    
   7 C7             1.6781     3.4314     2.2795 C.ar    
   8 C8             1.9381     4.0609     1.0655 C.ar    
   9 C9             1.9925     3.3518    -0.0960 C.ar    
  10 C10            1.7844     1.9626    -0.0760 C.ar    
  11 N11            1.6997    -0.7654    -2.3827 N.pl3   
  12 C12            1.1558    -2.2416    -0.0231 C.3     
  13 C13            1.0248    -2.7531     1.3884 C.ar    
  14 C14           -0.2271    -2.8632     1.9736 C.ar    
  15 C15           -0.3451    -3.3344     3.2736 C.ar    
  16 C16            0.7839    -3.6938     3.9845 C.ar    
  17 C17            2.0328    -3.5851     3.4034 C.ar    
  18 C18            2.1556    -3.1198     2.1018 C.ar    
  19 O19            3.3837    -3.0183     1.5289 O.3     
  20 C20            4.5044    -3.4137     2.3224 C.3     
  21 O21           -1.3378    -2.5094     1.2751 O.3     
  22 C22           -2.5946    -2.6488     1.9407 C.3     
  23 Cl23           1.1465     1.3170     3.8611 Cl      
  24 H24            1.1069    -0.5869     2.1067 H       
  25 H25            1.6399     4.0168     3.1862 H       
  26 H26            2.0988     5.1287     1.0442 H       
  27 H27            2.1946     3.8559    -1.0295 H       
  28 H28            1.8009    -0.2906    -3.2225 H       
  29 H29            1.6406    -1.7336    -2.3771 H       
  30 H30            0.2447    -2.4670    -0.5772 H       
  31 H31            2.0045    -2.7248    -0.5073 H       
  32 H32           -1.3202    -3.4200     3.7300 H       
  33 H33            0.6900    -4.0600     4.9962 H       
  34 H34            2.9137    -3.8666     3.9612 H       
  35 H35            4.3984    -4.4613     2.6044 H       
  36 H36            5.4210    -3.2832     1.7472 H       
  37 H37            4.5486    -2.7983     3.2210 H       
  38 H38           -2.7441    -3.6918     2.2200 H       
  39 H39           -2.6021    -2.0281     2.8366 H       
  40 H40           -3.3963    -2.3330     1.2731 H       
@<TRIPOS>BOND
   1    1    2 ar
   2    1   10 ar
   3    2    3 ar
   4    2   11 1
   5    3    4 ar
   6    3   12 1
   7    4    5 ar
   8    4   24 1
   9    5    6 ar
  10    5   10 ar
  11    6    7 ar
  12    6   23 1
  13    7    8 ar
  14    7   25 1
  15    8    9 ar
  16    8   26 1
  17    9   10 ar
  18    9   27 1
  19   11   28 1
  20   11   29 1
  21   12   13 1
  22   12   30 1
  23   12   31 1
  24   13   14 ar
  25   13   18 ar
  26   14   15 ar
  27   14   21 1
  28   15   16 ar
  29   15   32 1
  30   16   17 ar
  31   16   33 1
  32   17   18 ar
  33   17   34 1
  34   18   19 1
  35   19   20 1
  36   20   35 1
  37   20   36 1
  38   20   37 1
  39   21   22 1
  40   22   38 1
  41   22   39 1
  42   22   40 1

#	End of record

