#	Name: ASD06020192
#	Creating user name:	WinNT
#	Creation time:	15. 06. 2019 21:04

#	Modifying user name:	WinNT
#	Modification time:	15. 06. 2019 21:04

#	Program:	/corina/corina34_cracker 3.40 0067  02.08.2006

@<TRIPOS>MOLECULE
ASD06020192
  25   27    0    0    0
SMALL
NO_CHARGES


@<TRIPOS>ATOM
   1 N1            -0.0221     1.3874    -0.0479 N.pl3   
   2 C2            -0.0006    -0.0043    -0.0268 C.ar    
   3 C3             1.2187    -0.6916    -0.1190 C.ar    
   4 C4             1.2270    -2.0879    -0.0962 C.ar    
   5 C5             0.0385    -2.7814     0.0166 C.ar    
   6 C6            -1.1625    -2.0991     0.1073 C.ar    
   7 C7            -1.1849    -0.7181     0.0914 C.ar    
   8 C8             6.0603     1.5604     0.0065 C.ar    
   9 C9             4.7704     1.0528    -0.1172 C.ar    
  10 C10            3.8978     1.6041    -1.0661 C.ar    
  11 C11            4.3964     2.6671    -1.8574 C.ar    
  12 C12            5.6725     3.0996    -1.6683 C.ar    
  13 N13            6.4644     2.5526    -0.7607 N.ar    
  14 S14            3.9237    -0.2375     0.7291 S.3     
  15 C15            2.4855     0.0566    -0.2399 C.2     
  16 N16            2.6975     1.0226    -1.0742 N.2     
  17 Cl17           7.1424     0.8863     1.1847 Cl      
  18 Cl18           2.7293    -2.9504    -0.2102 Cl      
  19 H19            0.8101     1.8856    -0.0343 H       
  20 H20           -0.8691     1.8590    -0.0802 H       
  21 H21            0.0458    -3.8613     0.0338 H       
  22 H22           -2.0874    -2.6499     0.1950 H       
  23 H23           -2.1257    -0.1931     0.1668 H       
  24 H24            3.7694     3.1304    -2.6048 H       
  25 H25            6.0485     3.9105    -2.2745 H       
@<TRIPOS>BOND
   1    1    2 1
   2    1   19 1
   3    1   20 1
   4    2    3 ar
   5    2    7 ar
   6    3    4 ar
   7    3   15 1
   8    4    5 ar
   9    4   18 1
  10    5    6 ar
  11    5   21 1
  12    6    7 ar
  13    6   22 1
  14    7   23 1
  15    8    9 ar
  16    8   13 ar
  17    8   17 1
  18    9   10 ar
  19    9   14 1
  20   10   11 ar
  21   10   16 1
  22   11   12 ar
  23   11   24 1
  24   12   13 ar
  25   12   25 1
  26   14   15 1
  27   15   16 2

#	End of record

