#	Name: ASD01883893
#	Creating user name:	WinNT
#	Creation time:	15. 06. 2019 19:47

#	Modifying user name:	WinNT
#	Modification time:	15. 06. 2019 19:47

#	Program:	/corina/corina34_cracker 3.40 0067  02.08.2006

@<TRIPOS>MOLECULE
ASD01883893
  38   41    0    0    0
SMALL
NO_CHARGES


@<TRIPOS>ATOM
   1 Cl1            0.9050    11.5167    -2.9220 Cl      
   2 C2             0.6771    10.0420    -2.0350 C.ar    
   3 C3             1.7732     9.3404    -1.5655 C.ar    
   4 C4             1.5912     8.1662    -0.8594 C.ar    
   5 C5             0.3142     7.6927    -0.6226 C.ar    
   6 C6             0.1164     6.4121     0.1470 C.3     
   7 N7             0.1047     6.7022     1.5829 N.pl3   
   8 C8            -0.9960     6.9145     2.3537 C.2     
   9 C9            -2.4176     6.8874     1.8545 C.3     
  10 C10           -3.0073     5.5209     2.0916 C.2     
  11 C11           -2.9261     4.5027     1.1574 C.2     
  12 C12           -3.4995     3.3557     1.5249 C.2     
  13 S13           -4.1911     3.5306     3.1325 S.3     
  14 C14           -3.6421     5.1993     3.2198 C.2     
  15 N15           -0.6426     7.1438     3.5847 N.2     
  16 C16            0.7105     7.0944     3.6880 C.ar    
  17 C17            1.6025     7.2625     4.7499 C.ar    
  18 C18            2.9470     7.1500     4.5339 C.ar    
  19 C19            3.4394     6.8696     3.2675 C.ar    
  20 C20            2.5776     6.6996     2.2045 C.ar    
  21 C21            1.2084     6.8049     2.4060 C.ar    
  22 C22           -0.7814     8.3935    -1.0910 C.ar    
  23 C23           -0.6009     9.5708    -1.7923 C.ar    
  24 H24            2.7710     9.7099    -1.7511 H       
  25 H25            2.4468     7.6185    -0.4929 H       
  26 H26           -0.8324     5.9587    -0.1399 H       
  27 H27            0.9309     5.7236    -0.0780 H       
  28 H28           -3.0047     7.6342     2.3890 H       
  29 H29           -2.4323     7.1093     0.7874 H       
  30 H30           -2.4360     4.6275     0.2032 H       
  31 H31           -3.5342     2.4573     0.9265 H       
  32 H32           -3.7971     5.8628     4.0578 H       
  33 H33            1.2301     7.4814     5.7397 H       
  34 H34            3.6335     7.2810     5.3573 H       
  35 H35            4.5048     6.7841     3.1131 H       
  36 H36            2.9660     6.4818     1.2206 H       
  37 H37           -1.7789     8.0230    -0.9057 H       
  38 H38           -1.4570    10.1206    -2.1543 H       
@<TRIPOS>BOND
   1    1    2 1
   2    2   23 ar
   3    2    3 ar
   4    3    4 ar
   5    3   24 1
   6    4    5 ar
   7    4   25 1
   8    5    6 1
   9    5   22 ar
  10    6    7 1
  11    6   26 1
  12    6   27 1
  13    7   21 1
  14    7    8 1
  15    8    9 1
  16    8   15 2
  17    9   10 1
  18    9   28 1
  19    9   29 1
  20   10   14 2
  21   10   11 1
  22   11   12 2
  23   11   30 1
  24   12   13 1
  25   12   31 1
  26   13   14 1
  27   14   32 1
  28   15   16 1
  29   16   21 ar
  30   16   17 ar
  31   17   18 ar
  32   17   33 1
  33   18   19 ar
  34   18   34 1
  35   19   20 ar
  36   19   35 1
  37   20   21 ar
  38   20   36 1
  39   22   23 ar
  40   22   37 1
  41   23   38 1

#	End of record

