#	Name: ASD01916006
#	Creating user name:	WinNT
#	Creation time:	15. 06. 2019 20:06

#	Modifying user name:	WinNT
#	Modification time:	15. 06. 2019 20:06

#	Program:	/corina/corina34_cracker 3.40 0067  02.08.2006

@<TRIPOS>MOLECULE
ASD01916006
  40   42    0    0    0
SMALL
NO_CHARGES


@<TRIPOS>ATOM
   1 C1            -0.0262     1.4128    -0.1112 C.ar    
   2 C2            -0.0015     0.0113    -0.0751 C.ar    
   3 C3            -1.2050    -0.6651    -0.0330 C.ar    
   4 C4            -2.3959     0.0625    -0.0278 C.ar    
   5 C5            -3.6888    -0.6547     0.0177 C.2     
   6 N6            -4.8383     0.0362     0.1509 N.am    
   7 O7            -3.7145    -1.8671    -0.0650 O.2     
   8 C8            -6.1249    -0.6596     0.0682 C.3     
   9 C9             1.1946     2.1599    -0.1555 C.1     
  10 C10            2.1955     2.7725    -0.1918 C.1     
  11 C11            3.4163     3.5196    -0.2361 C.ar    
  12 C12            3.3836     4.9159    -0.2719 C.ar    
  13 C13            5.8187     3.5803    -0.2801 C.ar    
  14 C14            4.5658     5.6297    -0.3141 C.ar    
  15 N15           -2.3842     1.3907    -0.0628 N.ar    
  16 C16           -1.2631     2.0716    -0.1092 C.ar    
  17 C17            4.6464     2.8554    -0.2378 C.ar    
  18 C18           -4.8013     1.4829     0.3783 C.3     
  19 C19            5.7807     4.9629    -0.3208 C.ar    
  20 F20            4.5374     6.9800    -0.3492 F       
  21 C21           -6.9772    -0.5321     1.3418 C.3     
  22 C22           -8.1950    -0.3732     0.4164 C.3     
  23 C23           -7.2178     0.1497    -0.6497 C.3     
  24 H24            0.9354    -0.5260    -0.0804 H       
  25 H25           -1.2242    -1.7446    -0.0047 H       
  26 H26           -6.0298    -1.6837    -0.2929 H       
  27 H27            2.4370     5.4358    -0.2671 H       
  28 H28            6.7691     3.0674    -0.2853 H       
  29 H29           -1.2940     3.1508    -0.1362 H       
  30 H30            4.6785     1.7763    -0.2057 H       
  31 H31           -4.7090     1.9988    -0.5774 H       
  32 H32           -5.7204     1.7966     0.8732 H       
  33 H33           -3.9468     1.7299     1.0085 H       
  34 H34            6.7023     5.5252    -0.3534 H       
  35 H35           -7.0016    -1.4406     1.9436 H       
  36 H36           -6.7552     0.3594     1.9283 H       
  37 H37           -8.6671    -1.3188     0.1497 H       
  38 H38           -8.9090     0.3757     0.7591 H       
  39 H39           -7.0616     1.2276    -0.6077 H       
  40 H40           -7.4366    -0.2084    -1.6557 H       
@<TRIPOS>BOND
   1    1    2 ar
   2    1    9 1
   3    1   16 ar
   4    2    3 ar
   5    2   24 1
   6    3    4 ar
   7    3   25 1
   8    4   15 ar
   9    4    5 1
  10    5    6 am
  11    5    7 2
  12    6    8 1
  13    6   18 1
  14    8   21 1
  15    8   23 1
  16    8   26 1
  17    9   10 3
  18   10   11 1
  19   11   12 ar
  20   11   17 ar
  21   12   14 ar
  22   12   27 1
  23   13   19 ar
  24   13   17 ar
  25   13   28 1
  26   14   20 1
  27   14   19 ar
  28   15   16 ar
  29   16   29 1
  30   17   30 1
  31   18   31 1
  32   18   32 1
  33   18   33 1
  34   19   34 1
  35   21   22 1
  36   21   35 1
  37   21   36 1
  38   22   23 1
  39   22   37 1
  40   22   38 1
  41   23   39 1
  42   23   40 1

#	End of record

