#	Name: ASD00960242
#	Creating user name:	WinNT
#	Creation time:	15. 06. 2019 18:53

#	Modifying user name:	WinNT
#	Modification time:	15. 06. 2019 18:53

#	Program:	/corina/corina34_cracker 3.40 0067  02.08.2006

@<TRIPOS>MOLECULE
ASD00960242
  34   36    0    0    0
SMALL
NO_CHARGES


@<TRIPOS>ATOM
   1 C1            -0.0169     1.3956     0.0097 C.2     
   2 N2             2.0916     0.7039    -0.0207 N.pl3   
   3 C3             1.2890    -0.3953    -0.0098 C.2     
   4 C4             0.0021    -0.0041     0.0020 C.2     
   5 N5             3.4896     0.5925    -0.0576 N.2     
   6 C6             4.0106    -0.5733    -0.3031 C.2     
   7 N7             3.2312    -1.6777    -0.5698 N.pl3   
   8 C8             1.8764    -1.7890    -0.0001 C.3     
   9 N9             1.9495    -2.2959     1.3767 N.3     
  10 I10            6.0955    -0.7781    -0.2933 I       
  11 C11            1.3036     1.8198    -0.0006 C.2     
  12 C12            1.7674     3.2076     0.0076 C.2     
  13 O13            0.9612     4.1182     0.0256 O.2     
  14 O14            3.0893     3.4770    -0.0047 O.3     
  15 C15            3.4707     4.8542     0.0044 C.3     
  16 C16            4.9740     4.9591    -0.0116 C.ar    
  17 C17            5.6499     5.0189    -1.2159 C.ar    
  18 C18            7.0288     5.1151    -1.2306 C.ar    
  19 C19            7.7318     5.1520    -0.0409 C.ar    
  20 C20            7.0558     5.0932     1.1635 C.ar    
  21 C21            5.6766     5.0013     1.1782 C.ar    
  22 H22           -0.8939     2.0259     0.0175 H       
  23 H23           -0.8612    -0.6530     0.0050 H       
  24 H24            3.5762    -2.3861    -1.1356 H       
  25 H25            1.2674    -2.4542    -0.6122 H       
  26 H26            2.3825    -3.2069     1.4041 H       
  27 H27            2.4361    -1.6461     1.9759 H       
  28 H28            3.0625     5.3501    -0.8762 H       
  29 H29            3.0826     5.3328     0.9035 H       
  30 H30            5.1007     4.9901    -2.1454 H       
  31 H31            7.5569     5.1611    -2.1715 H       
  32 H32            8.8091     5.2265    -0.0524 H       
  33 H33            7.6050     5.1217     2.0929 H       
  34 H34            5.1482     4.9591     2.1191 H       
@<TRIPOS>BOND
   1    1    4 1
   2    1   11 2
   3    1   22 1
   4    2    3 1
   5    2    5 1
   6    2   11 1
   7    3    4 2
   8    3    8 1
   9    4   23 1
  10    5    6 2
  11    6    7 1
  12    6   10 1
  13    7    8 1
  14    7   24 1
  15    8    9 1
  16    8   25 1
  17    9   26 1
  18    9   27 1
  19   11   12 1
  20   12   13 2
  21   12   14 1
  22   14   15 1
  23   15   16 1
  24   15   28 1
  25   15   29 1
  26   16   17 ar
  27   16   21 ar
  28   17   18 ar
  29   17   30 1
  30   18   19 ar
  31   18   31 1
  32   19   20 ar
  33   19   32 1
  34   20   21 ar
  35   20   33 1
  36   21   34 1

#	End of record

