#	Name: ASD02198297
#	Creating user name:	WinNT
#	Creation time:	15. 06. 2019 20:19

#	Modifying user name:	WinNT
#	Modification time:	15. 06. 2019 20:19

#	Program:	/corina/corina34_cracker 3.40 0067  02.08.2006

@<TRIPOS>MOLECULE
ASD02198297
  36   38    0    0    0
SMALL
NO_CHARGES


@<TRIPOS>ATOM
   1 C1             0.4898     1.5617     0.0828 C.2     
   2 C2             0.6436     0.1885     0.1458 C.2     
   3 S3             2.0766     2.2893     0.3203 S.3     
   4 C4             2.7816     0.7409     0.4777 C.2     
   5 N5             1.8815    -0.1923     0.3574 N.2     
   6 N6            -0.4091    -0.7003    -0.0005 N.pl3   
   7 C7            -0.7160     2.2529    -0.1374 C.2     
   8 C8            -0.7511     3.7294    -0.0397 C.ar    
   9 O9            -1.7318     1.6355    -0.4088 O.2     
  10 N10            4.1207     0.5110     0.7019 N.pl3   
  11 C11            4.5772    -0.7899     0.9360 C.ar    
  12 C12            5.8807    -1.1396     0.6076 C.ar    
  13 C13           -1.6794     4.4587    -0.7833 C.ar    
  14 C14            0.1403     4.3974     0.8009 C.ar    
  15 C15            0.1024     5.7736     0.8875 C.ar    
  16 C16           -0.8169     6.4916     0.1431 C.ar    
  17 C17           -1.7070     5.8350    -0.6878 C.ar    
  18 C18            6.3288    -2.4251     0.8398 C.ar    
  19 C19            5.4804    -3.3645     1.3991 C.ar    
  20 C20            4.1812    -3.0189     1.7272 C.ar    
  21 C21            3.7296    -1.7333     1.5025 C.ar    
  22 Cl22           6.0469    -4.9797     1.6891 Cl      
  23 N23           -2.6868     6.6108    -1.4810 N.pl3   
  24 O24           -2.7086     7.8260    -1.4018 O.2     
  25 O25           -3.4711     6.0340    -2.2128 O.2     
  26 H26           -1.3069    -0.3675    -0.1555 H       
  27 H27           -0.2483    -1.6554     0.0521 H       
  28 H28            4.7473     1.2514     0.6974 H       
  29 H29            6.5431    -0.4069     0.1707 H       
  30 H30           -2.3746     3.9473    -1.4325 H       
  31 H31            0.8580     3.8381     1.3827 H       
  32 H32            0.7915     6.2918     1.5380 H       
  33 H33           -0.8425     7.5690     0.2143 H       
  34 H34            7.3422    -2.6975     0.5843 H       
  35 H35            3.5211    -3.7541     2.1633 H       
  36 H36            2.7156    -1.4640     1.7591 H       
@<TRIPOS>BOND
   1    1    2 2
   2    1    3 1
   3    1    7 1
   4    2    6 1
   5    2    5 1
   6    3    4 1
   7    4    5 2
   8    4   10 1
   9    6   26 1
  10    6   27 1
  11    7    8 1
  12    7    9 2
  13    8   13 ar
  14    8   14 ar
  15   10   11 1
  16   10   28 1
  17   11   12 ar
  18   11   21 ar
  19   12   18 ar
  20   12   29 1
  21   13   17 ar
  22   13   30 1
  23   14   15 ar
  24   14   31 1
  25   15   16 ar
  26   15   32 1
  27   16   17 ar
  28   16   33 1
  29   17   23 1
  30   18   19 ar
  31   18   34 1
  32   19   20 ar
  33   19   22 1
  34   20   21 ar
  35   20   35 1
  36   21   36 1
  37   23   24 2
  38   23   25 2

#	End of record

