#	Name: ASD01730021
#	Creating user name:	WinNT
#	Creation time:	15. 06. 2019 19:23

#	Modifying user name:	WinNT
#	Modification time:	15. 06. 2019 19:23

#	Program:	/corina/corina34_cracker 3.40 0067  02.08.2006

@<TRIPOS>MOLECULE
ASD01730021
  29   30    0    0    0
SMALL
NO_CHARGES


@<TRIPOS>ATOM
   1 N1            -0.0162     1.3436     0.0094 N.am    
   2 C2             0.0021    -0.0041     0.0020 C.2     
   3 S3             1.4961    -0.8398    -0.0167 S.2     
   4 N4            -1.1558    -0.6938     0.0094 N.am    
   5 S5            -2.5667    -3.1011     0.0099 S.3     
   6 C6            -1.1371    -2.0780     0.0018 C.2     
   7 N7            -0.0696    -2.7989    -0.0128 N.2     
   8 C8            -0.2134    -4.1388    -0.0189 C.ar    
   9 C9            -1.5524    -4.5418    -0.0082 C.ar    
  10 C10            0.7863    -5.1342    -0.0348 C.ar    
  11 C11            0.4440    -6.4630    -0.0394 C.ar    
  12 C12           -0.8880    -6.8491    -0.0290 C.ar    
  13 C13           -1.8812    -5.8948    -0.0131 C.ar    
  14 S14           -1.3097    -8.5598    -0.0358 S.o2    
  15 O15           -2.6004    -8.6003    -0.6289 O.2     
  16 O16           -0.1984    -9.1923    -0.6557 O.2     
  17 C17           -1.4012    -9.0104     1.7190 C.3     
  18 C18            1.2424     2.0932     0.0014 C.3     
  19 H19           -0.8627     1.8171     0.0160 H       
  20 H20           -2.0023    -0.2203     0.0200 H       
  21 H21            1.8278    -4.8484    -0.0437 H       
  22 H22            1.2190    -7.2151    -0.0515 H       
  23 H23           -2.9180    -6.1970    -0.0047 H       
  24 H24           -2.1633    -8.4054     2.2102 H       
  25 H25           -1.6602   -10.0653     1.8102 H       
  26 H26           -0.4351    -8.8313     2.1909 H       
  27 H27            1.8260     1.8329     0.8845 H       
  28 H28            1.8090     1.8425    -0.8954 H       
  29 H29            1.0287     3.1621     0.0092 H       
@<TRIPOS>BOND
   1    1    2 am
   2    1   18 1
   3    1   19 1
   4    2    3 2
   5    2    4 am
   6    4    6 1
   7    4   20 1
   8    5    6 1
   9    5    9 1
  10    6    7 2
  11    7    8 1
  12    8    9 ar
  13    8   10 ar
  14    9   13 ar
  15   10   11 ar
  16   10   21 1
  17   11   12 ar
  18   11   22 1
  19   12   13 ar
  20   12   14 1
  21   13   23 1
  22   14   15 2
  23   14   16 2
  24   14   17 1
  25   17   24 1
  26   17   25 1
  27   17   26 1
  28   18   27 1
  29   18   28 1
  30   18   29 1

#	End of record

