#	Name: ASD02560430
#	Creating user name:	WinNT
#	Creation time:	15. 06. 2019 20:25

#	Modifying user name:	WinNT
#	Modification time:	15. 06. 2019 20:25

#	Program:	/corina/corina34_cracker 3.40 0067  02.08.2006

@<TRIPOS>MOLECULE
ASD02560430
  46   49    0    0    0
SMALL
NO_CHARGES


@<TRIPOS>ATOM
   1 C1             0.0975     0.9546     1.1027 C.2     
   2 C2             0.2531    -0.4437     1.1174 C.2     
   3 C3             1.4415    -1.0000     0.8058 C.2     
   4 N4             2.5122    -0.2144     0.4707 N.pl3   
   5 C5             2.3892     1.1559     0.4474 C.2     
   6 C6             1.1503     1.7482     0.7723 C.2     
   7 C7             3.7994    -0.5136     0.1198 C.2     
   8 C8             4.4391     0.6861    -0.1116 C.2     
   9 N9             3.5534     1.6774     0.0966 N.2     
  10 C10            5.8543     0.8540    -0.5173 C.ar    
  11 N11            4.3585    -1.7878     0.0166 N.3     
  12 C12            3.3302    -2.8271     0.1593 C.3     
  13 C13            6.1858     1.7167    -1.5633 C.ar    
  14 C14            6.8608     0.1553     0.1479 C.ar    
  15 C15            8.1773     0.3161    -0.2341 C.ar    
  16 C16            8.4997     1.1687    -1.2745 C.ar    
  17 C17            7.5065     1.8689    -1.9360 C.ar    
  18 Cl18           4.9405     2.5959    -2.3940 Cl      
  19 C19            3.8065    -4.1126    -0.5201 C.3     
  20 C20            2.7354    -5.1950    -0.3715 C.3     
  21 C21            2.4862    -5.4653     1.1137 C.3     
  22 C22            2.0099    -4.1799     1.7931 C.3     
  23 C23            3.0809    -3.0974     1.6445 C.3     
  24 Br24          -1.2111    -1.5485     1.5770 Br      
  25 C25            0.9959     3.2471     0.7530 C.3     
  26 H26           -0.8570     1.3958     1.3490 H       
  27 H27            1.5500    -2.0745     0.8210 H       
  28 H28            4.8607    -1.8930    -0.8522 H       
  29 H29            2.4054    -2.4899    -0.3088 H       
  30 H30            6.6108    -0.5103     0.9609 H       
  31 H31            8.9575    -0.2248     0.2807 H       
  32 H32            9.5315     1.2914    -1.5690 H       
  33 H33            7.7644     2.5329    -2.7478 H       
  34 H34            3.9840    -3.9200    -1.5782 H       
  35 H35            4.7313    -4.4498    -0.0520 H       
  36 H36            1.8106    -4.8578    -0.8396 H       
  37 H37            3.0748    -6.1108    -0.8555 H       
  38 H38            1.7232    -6.2365     1.2196 H       
  39 H39            3.4110    -5.8025     1.5818 H       
  40 H40            1.0851    -3.8426     1.3250 H       
  41 H41            1.8324    -4.3724     2.8512 H       
  42 H42            4.0058    -3.4346     2.1126 H       
  43 H43            2.7416    -2.1816     2.1285 H       
  44 H44            0.6797     3.5671    -0.2398 H       
  45 H45            0.2464     3.5446     1.4864 H       
  46 H46            1.9498     3.7138     0.9985 H       
@<TRIPOS>BOND
   1    1    2 1
   2    1    6 2
   3    1   26 1
   4    2    3 2
   5    2   24 1
   6    3    4 1
   7    3   27 1
   8    4    5 1
   9    4    7 1
  10    5    6 1
  11    5    9 2
  12    6   25 1
  13    7    8 2
  14    7   11 1
  15    8    9 1
  16    8   10 1
  17   10   14 ar
  18   10   13 ar
  19   11   12 1
  20   11   28 1
  21   12   19 1
  22   12   23 1
  23   12   29 1
  24   13   18 1
  25   13   17 ar
  26   14   15 ar
  27   14   30 1
  28   15   16 ar
  29   15   31 1
  30   16   17 ar
  31   16   32 1
  32   17   33 1
  33   19   20 1
  34   19   34 1
  35   19   35 1
  36   20   21 1
  37   20   36 1
  38   20   37 1
  39   21   22 1
  40   21   38 1
  41   21   39 1
  42   22   23 1
  43   22   40 1
  44   22   41 1
  45   23   42 1
  46   23   43 1
  47   25   44 1
  48   25   45 1
  49   25   46 1

#	End of record

