#	Name: ASD01884384
#	Creating user name:	WinNT
#	Creation time:	15. 06. 2019 19:48

#	Modifying user name:	WinNT
#	Modification time:	15. 06. 2019 19:48

#	Program:	/corina/corina34_cracker 3.40 0067  02.08.2006

@<TRIPOS>MOLECULE
ASD01884384
  48   52    0    0    0
SMALL
NO_CHARGES


@<TRIPOS>ATOM
   1 C1            -0.0168     1.3881     0.0097 C.ar    
   2 C2             0.0021    -0.0041     0.0020 C.ar    
   3 N3             1.1485    -0.6682    -0.0125 N.ar    
   4 C4             2.3100    -0.0464    -0.0202 C.ar    
   5 C5             2.3712     1.3451    -0.0134 C.ar    
   6 C6             1.1786     2.0786     0.0020 C.ar    
   7 N7            -1.1960    -0.7055     0.0102 N.pl3   
   8 C8             3.6805     2.0397    -0.0216 C.ar    
   9 C9             3.7267     3.4362    -0.0146 C.ar    
  10 C10            4.8591     1.2971    -0.0307 C.ar    
  11 C11            6.0793     1.9508    -0.0384 C.ar    
  12 C12            6.1152     3.3562    -0.0371 C.ar    
  13 C13            4.9273     4.0879    -0.0226 C.ar    
  14 N14            7.2738     1.2374    -0.0469 N.pl3   
  15 C15            8.4696     1.8889    -0.0541 C.2     
  16 N16            8.5426     3.2745    -0.0532 N.am    
  17 C17            7.4250     4.0296    -0.0450 C.2     
  18 O18            7.4976     5.2442    -0.0439 O.2     
  19 N19            7.5309    -0.1410    -0.0496 N.2     
  20 C20            8.8353    -0.3193    -0.0580 C.2     
  21 C21            9.4519     0.9434    -0.0611 C.2     
  22 C22            9.5342    -1.6284    -0.0634 C.ar    
  23 C23            8.8003    -2.8128    -0.0601 C.ar    
  24 C24            9.4555    -4.0276    -0.0656 C.ar    
  25 C25           10.8380    -4.0706    -0.0740 C.ar    
  26 C26           11.5715    -2.8979    -0.0773 C.ar    
  27 C27           10.9266    -1.6776    -0.0776 C.ar    
  28 C28            9.8539     3.9275    -0.0608 C.3     
  29 C29           10.3014     4.1563    -1.5059 C.3     
  30 F30            9.3707     4.9716    -2.1587 F       
  31 F31           11.5537     4.7799    -1.5131 F       
  32 F32           10.3890     2.9266    -2.1672 F       
  33 H33           -0.9558     1.9217     0.0170 H       
  34 H34            3.2240    -0.6215    -0.0317 H       
  35 H35            1.1936     3.1585     0.0076 H       
  36 H36           -2.0389    -0.2256     0.0211 H       
  37 H37           -1.1902    -1.6755     0.0049 H       
  38 H38            2.8079     4.0037    -0.0031 H       
  39 H39            4.8210     0.2177    -0.0313 H       
  40 H40            4.9568     5.1675    -0.0219 H       
  41 H41           10.5154     1.1316    -0.0683 H       
  42 H42            7.7208    -2.7804    -0.0529 H       
  43 H43            8.8876    -4.9463    -0.0630 H       
  44 H44           11.3466    -5.0233    -0.0775 H       
  45 H45           12.6508    -2.9372    -0.0838 H       
  46 H46           11.5003    -0.7625    -0.0803 H       
  47 H47            9.7857     4.8857     0.4544 H       
  48 H48           10.5791     3.2923     0.4479 H       
@<TRIPOS>BOND
   1    1    2 ar
   2    1    6 ar
   3    1   33 1
   4    2    3 ar
   5    2    7 1
   6    3    4 ar
   7    4    5 ar
   8    4   34 1
   9    5    6 ar
  10    5    8 1
  11    6   35 1
  12    7   36 1
  13    7   37 1
  14    8    9 ar
  15    8   10 ar
  16    9   13 ar
  17    9   38 1
  18   10   11 ar
  19   10   39 1
  20   11   12 ar
  21   11   14 1
  22   12   13 ar
  23   12   17 1
  24   13   40 1
  25   14   15 1
  26   14   19 1
  27   15   16 1
  28   15   21 2
  29   16   17 am
  30   16   28 1
  31   17   18 2
  32   19   20 2
  33   20   21 1
  34   20   22 1
  35   21   41 1
  36   22   23 ar
  37   22   27 ar
  38   23   24 ar
  39   23   42 1
  40   24   25 ar
  41   24   43 1
  42   25   26 ar
  43   25   44 1
  44   26   27 ar
  45   26   45 1
  46   27   46 1
  47   28   29 1
  48   28   47 1
  49   28   48 1
  50   29   30 1
  51   29   31 1
  52   29   32 1

#	End of record

