#	Name: ASD03092138
#	Creating user name:	WinNT
#	Creation time:	15. 06. 2019 20:32

#	Modifying user name:	WinNT
#	Modification time:	15. 06. 2019 20:32

#	Program:	/corina/corina34_cracker 3.40 0067  02.08.2006

@<TRIPOS>MOLECULE
ASD03092138
  46   48    0    0    0
SMALL
NO_CHARGES


@<TRIPOS>ATOM
   1 N1             0.2805     0.9001    -0.3961 N.pl3   
   2 C2             0.0788    -0.3560     0.0942 C.2     
   3 C3            -1.2622    -0.5012     0.3088 C.2     
   4 C4            -1.8870     0.6966    -0.0609 C.2     
   5 N5            -0.9655     1.5347    -0.4763 N.2     
   6 N6            -3.2608     0.9580     0.0067 N.pl3   
   7 C7            -3.7440     2.2380    -0.2818 C.ar    
   8 C8            -5.0247     2.3986    -0.7940 C.ar    
   9 C9            -5.5002     3.6659    -1.0786 C.ar    
  10 C10           -4.6981     4.7744    -0.8530 C.ar    
  11 C11           -2.9454     3.3511    -0.0512 C.ar    
  12 C12            1.1212    -1.3747     0.3474 C.ar    
  13 C13            1.5717     1.4843    -0.7671 C.3     
  14 C14            2.3561    -1.3174    -0.3071 C.ar    
  15 C15            3.3005    -2.2893    -0.0408 C.ar    
  16 N16            3.0491    -3.2610     0.8170 N.ar    
  17 C17            1.8972    -3.3509     1.4550 C.ar    
  18 C18            0.9010    -2.4195     1.2529 C.ar    
  19 C19            1.6701    -4.4837     2.4225 C.3     
  20 C20           -3.4214     4.6147    -0.3425 C.ar    
  21 F21           -6.7460     3.8238    -1.5769 F       
  22 Cl22           4.8379    -2.2330    -0.8450 Cl      
  23 C23            1.8096     1.2819    -2.2414 C.2     
  24 O24            0.9820     0.7063    -2.9158 O.2     
  25 F25           -5.1632     6.0117    -1.1322 F       
  26 N26            2.9419     1.7405    -2.8105 N.am    
  27 C27            3.1732     1.5438    -4.2437 C.3     
  28 C28            3.9415     2.4358    -1.9959 C.3     
  29 H29           -1.7532    -1.3824     0.6943 H       
  30 H30           -3.8775     0.2511     0.2537 H       
  31 H31           -5.6487     1.5349    -0.9702 H       
  32 H32           -1.9508     3.2282     0.3512 H       
  33 H33            1.5656     2.5510    -0.5432 H       
  34 H34            2.3664     0.9987    -0.2009 H       
  35 H35            2.5676    -0.5253    -1.0102 H       
  36 H36           -0.0388    -2.4996     1.7790 H       
  37 H37            1.9929    -4.1810     3.4187 H       
  38 H38            0.6098    -4.7353     2.4450 H       
  39 H39            2.2434    -5.3542     2.1037 H       
  40 H40           -2.7982     5.4793    -0.1678 H       
  41 H41            2.7682     2.3912    -4.7968 H       
  42 H42            4.2440     1.4656    -4.4316 H       
  43 H43            2.6794     0.6281    -4.5691 H       
  44 H44            3.5973     2.4860    -0.9629 H       
  45 H45            4.8859     1.8932    -2.0382 H       
  46 H46            4.0851     3.4455    -2.3805 H       
@<TRIPOS>BOND
   1    1    2 1
   2    1   13 1
   3    1    5 1
   4    2    3 2
   5    2   12 1
   6    3    4 1
   7    3   29 1
   8    4    5 2
   9    4    6 1
  10    6    7 1
  11    6   30 1
  12    7    8 ar
  13    7   11 ar
  14    8    9 ar
  15    8   31 1
  16    9   10 ar
  17    9   21 1
  18   10   20 ar
  19   10   25 1
  20   11   20 ar
  21   11   32 1
  22   12   14 ar
  23   12   18 ar
  24   13   23 1
  25   13   33 1
  26   13   34 1
  27   14   15 ar
  28   14   35 1
  29   15   16 ar
  30   15   22 1
  31   16   17 ar
  32   17   18 ar
  33   17   19 1
  34   18   36 1
  35   19   37 1
  36   19   38 1
  37   19   39 1
  38   20   40 1
  39   23   24 2
  40   23   26 am
  41   26   27 1
  42   26   28 1
  43   27   41 1
  44   27   42 1
  45   27   43 1
  46   28   44 1
  47   28   45 1
  48   28   46 1

#	End of record

