#	Name: ASD02560072
#	Creating user name:	WinNT
#	Creation time:	15. 06. 2019 20:24

#	Modifying user name:	WinNT
#	Modification time:	15. 06. 2019 20:24

#	Program:	/corina/corina34_cracker 3.40 0067  02.08.2006

@<TRIPOS>MOLECULE
ASD02560072
  37   38    0    0    0
SMALL
NO_CHARGES


@<TRIPOS>ATOM
   1 C1             1.7289    -1.7765     2.1898 C.ar    
   2 C2             0.8818    -1.6014     1.0925 C.ar    
   3 C3            -0.3492    -2.2343     1.0667 C.ar    
   4 C4            -0.7395    -3.0400     2.1284 C.ar    
   5 C5             0.0974    -3.2148     3.2158 C.ar    
   6 C6             1.3286    -2.5947     3.2512 C.ar    
   7 C7             3.0398    -1.1074     2.2259 C.2     
   8 O8            -1.1766    -2.0666     0.0017 O.3     
   9 C9            -2.3184    -2.7945    -0.0374 C.2     
  10 C10           -3.5487    -2.1791     0.1052 C.2     
  11 C11           -4.7103    -2.9597     0.0596 C.2     
  12 N12           -4.6234    -4.2906    -0.1207 N.am    
  13 C13           -3.4178    -4.9022    -0.2615 C.2     
  14 C14           -2.2712    -4.1898    -0.2297 C.2     
  15 C15           -0.9443    -4.8863    -0.3882 C.3     
  16 C16           -0.5100    -4.8289    -1.8542 C.3     
  17 C17           -3.3602    -6.3947    -0.4618 C.3     
  18 O18           -5.8045    -2.4318     0.1843 O.2     
  19 I19           -3.6728    -0.1067     0.3861 I       
  20 C20            3.8549    -1.2782     3.2861 C.2     
  21 C21            5.1300    -0.6274     3.3212 C.1     
  22 N22            6.1415    -0.1111     3.3490 N.1     
  23 H23            1.1862    -0.9744     0.2675 H       
  24 H24           -1.7007    -3.5319     2.1051 H       
  25 H25           -0.2128    -3.8425     4.0381 H       
  26 H26            1.9795    -2.7337     4.1017 H       
  27 H27            3.3485    -0.4796     1.4031 H       
  28 H28           -5.4343    -4.8221    -0.1504 H       
  29 H29           -0.1973    -4.3903     0.2317 H       
  30 H30           -1.0408    -5.9268    -0.0783 H       
  31 H31           -1.2570    -5.3249    -2.4740 H       
  32 H32           -0.4135    -3.7884    -2.1641 H       
  33 H33            0.4498    -5.3327    -1.9688 H       
  34 H34           -4.3720    -6.8001    -0.4651 H       
  35 H35           -2.8773    -6.6152    -1.4138 H       
  36 H36           -2.7897    -6.8483     0.3487 H       
  37 H37            3.5462    -1.9060     4.1089 H       
@<TRIPOS>BOND
   1    1    2 ar
   2    1    7 1
   3    1    6 ar
   4    2    3 ar
   5    2   23 1
   6    3    4 ar
   7    3    8 1
   8    4    5 ar
   9    4   24 1
  10    5    6 ar
  11    5   25 1
  12    6   26 1
  13    7   20 2
  14    7   27 1
  15    8    9 1
  16    9   10 2
  17    9   14 1
  18   10   11 1
  19   10   19 1
  20   11   12 am
  21   11   18 2
  22   12   13 1
  23   12   28 1
  24   13   14 2
  25   13   17 1
  26   14   15 1
  27   15   16 1
  28   15   29 1
  29   15   30 1
  30   16   31 1
  31   16   32 1
  32   16   33 1
  33   17   34 1
  34   17   35 1
  35   17   36 1
  36   20   21 1
  37   20   37 1
  38   21   22 3

#	End of record

