#	Name: ASD01871007
#	Creating user name:	WinNT
#	Creation time:	15. 06. 2019 19:39

#	Modifying user name:	WinNT
#	Modification time:	15. 06. 2019 19:39

#	Program:	/corina/corina34_cracker 3.40 0067  02.08.2006

@<TRIPOS>MOLECULE
ASD01871007
  35   37    0    0    0
SMALL
NO_CHARGES


@<TRIPOS>ATOM
   1 C1            -0.0167     1.3813     0.0096 C.ar    
   2 C2             0.0021    -0.0041     0.0020 C.ar    
   3 C3             1.2089    -0.6845    -0.0127 C.ar    
   4 C4             2.3978     0.0156    -0.0198 C.ar    
   5 C5             2.3836     1.4090    -0.0126 C.ar    
   6 C6             1.1675     2.0893     0.0021 C.ar    
   7 C7             3.6597     2.1662    -0.0202 C.2     
   8 C8             3.7877     3.3728    -0.6919 C.2     
   9 C9             5.0164     3.9401    -0.6027 C.2     
  10 S10            5.9553     2.8674     0.3595 S.3     
  11 N11            4.7208     1.7327     0.6111 N.2     
  12 C12            2.6535     4.0024    -1.4588 C.3     
  13 N13            5.4320     5.1429    -1.1729 N.am    
  14 C14            6.6959     5.5739    -0.9905 C.2     
  15 C15            7.1452     6.8737    -1.6067 C.3     
  16 O16            7.4718     4.9156    -0.3303 O.2     
  17 C17            8.1678     6.8009    -2.7425 C.3     
  18 C18            8.5917     7.3085    -1.3628 C.3     
  19 C19            8.8635     8.8068    -1.2141 C.3     
  20 F20           -1.1598    -0.6935     0.0094 F       
  21 H21           -0.9597     1.9077     0.0170 H       
  22 H22            1.2190    -1.7644    -0.0182 H       
  23 H23            3.3381    -0.5155    -0.0305 H       
  24 H24            1.1520     3.1692     0.0074 H       
  25 H25            2.0864     4.6569    -0.7969 H       
  26 H26            3.0548     4.5843    -2.2886 H       
  27 H27            1.9989     3.2215    -1.8458 H       
  28 H28            4.8116     5.6693    -1.7009 H       
  29 H29            6.3869     7.6548    -1.6615 H       
  30 H30            8.5156     5.8128    -3.0440 H       
  31 H31            8.0825     7.5343    -3.5442 H       
  32 H32            9.2184     6.6543    -0.7566 H       
  33 H33            8.5571     9.3236    -2.1236 H       
  34 H34            8.2987     9.1962    -0.3671 H       
  35 H35            9.9283     8.9679    -1.0458 H       
@<TRIPOS>BOND
   1    1    2 ar
   2    1    6 ar
   3    1   21 1
   4    2    3 ar
   5    2   20 1
   6    3    4 ar
   7    3   22 1
   8    4    5 ar
   9    4   23 1
  10    5    6 ar
  11    5    7 1
  12    6   24 1
  13    7    8 1
  14    7   11 2
  15    8    9 2
  16    8   12 1
  17    9   10 1
  18    9   13 1
  19   10   11 1
  20   12   25 1
  21   12   26 1
  22   12   27 1
  23   13   14 am
  24   13   28 1
  25   14   16 2
  26   14   15 1
  27   15   17 1
  28   15   18 1
  29   15   29 1
  30   17   18 1
  31   17   30 1
  32   17   31 1
  33   18   19 1
  34   18   32 1
  35   19   33 1
  36   19   34 1
  37   19   35 1

#	End of record

