#	Name: ASD01811144
#	Creating user name:	WinNT
#	Creation time:	15. 06. 2019 19:26

#	Modifying user name:	WinNT
#	Modification time:	15. 06. 2019 19:26

#	Program:	/corina/corina34_cracker 3.40 0067  02.08.2006

@<TRIPOS>MOLECULE
ASD01811144
  56   59    0    0    0
SMALL
NO_CHARGES


@<TRIPOS>ATOM
   1 C1            -0.0167     1.3794     0.0096 C.ar    
   2 C2             0.0021    -0.0041     0.0020 C.ar    
   3 C3             1.2041    -0.6851    -0.0132 C.ar    
   4 C4             2.3975     0.0193    -0.0208 C.ar    
   5 C5             2.3775     1.4141    -0.0131 C.ar    
   6 C6             1.1681     2.0904     0.0021 C.ar    
   7 O7             3.6975    -0.3645    -0.0353 O.3     
   8 C8             4.4794     0.7265    -0.0370 C.2     
   9 N9             3.7081     1.8317    -0.0237 N.am    
  10 O10            5.6953     0.7190    -0.0487 O.2     
  11 C11            4.1810     3.2183    -0.0203 C.3     
  12 C12            5.0402     3.4628     1.2233 C.3     
  13 C13            5.5811     4.8941     1.1902 C.3     
  14 N14            6.3814     5.0883    -0.0256 N.3     
  15 C15            5.5659     4.9051    -1.2330 C.3     
  16 C16            5.0246     3.4742    -1.2723 C.3     
  17 C17            8.5292     7.9438    -1.3010 C.3     
  18 C18            7.8532     6.5713    -1.3030 C.3     
  19 C19            7.0305     6.4061    -0.0237 C.3     
  20 C20            5.9630     7.5003     0.0410 C.3     
  21 C21            6.6390     8.8729     0.0430 C.3     
  22 C22            7.4617     9.0380    -1.2363 C.3     
  23 O23            8.0931    10.3200    -1.2345 O.3     
  24 C24            7.9512     6.5194     1.1930 C.3     
  25 C25            8.2988    10.8685    -2.5379 C.3     
  26 C26            8.9774    12.2343    -2.4152 C.3     
  27 H27           -0.9601     1.9052     0.0170 H       
  28 H28           -0.9273    -0.5542     0.0083 H       
  29 H29            1.2137    -1.7650    -0.0187 H       
  30 H30            1.1516     3.1702     0.0077 H       
  31 H31            3.3263     3.8946    -0.0113 H       
  32 H32            4.4334     3.3237     2.1180 H       
  33 H33            5.8728     2.7594     1.2345 H       
  34 H34            4.7482     5.5972     1.1930 H       
  35 H35            6.2050     5.0669     2.0671 H       
  36 H36            4.7331     5.6082    -1.2189 H       
  37 H37            6.1788     5.0859    -2.1161 H       
  38 H38            5.8569     2.7709    -1.3003 H       
  39 H39            4.4066     3.3432    -2.1605 H       
  40 H40            9.1852     8.0245    -0.4342 H       
  41 H41            9.1154     8.0615    -2.2124 H       
  42 H42            7.1973     6.4906    -2.1698 H       
  43 H43            8.6137     5.7918    -1.3490 H       
  44 H44            5.3070     7.4196    -0.8258 H       
  45 H45            5.3768     7.3826     0.9524 H       
  46 H46            5.8785     9.6524     0.0890 H       
  47 H47            7.2949     8.9535     0.9098 H       
  48 H48            6.8058     8.9573    -2.1031 H       
  49 H49            8.4328     7.4972     1.1945 H       
  50 H50            7.3650     6.4017     2.1044 H       
  51 H51            8.7117     5.7399     1.1470 H       
  52 H52            8.9331    10.1984    -3.1181 H       
  53 H53            7.3378    10.9840    -3.0392 H       
  54 H54            9.1342    12.6527    -3.4094 H       
  55 H55            8.3431    12.9043    -1.8349 H       
  56 H56            9.9383    12.1188    -1.9138 H       
@<TRIPOS>BOND
   1    1    2 ar
   2    1    6 ar
   3    1   27 1
   4    2    3 ar
   5    2   28 1
   6    3    4 ar
   7    3   29 1
   8    4    5 ar
   9    4    7 1
  10    5    6 ar
  11    5    9 1
  12    6   30 1
  13    7    8 1
  14    8    9 am
  15    8   10 2
  16    9   11 1
  17   11   12 1
  18   11   16 1
  19   11   31 1
  20   12   13 1
  21   12   32 1
  22   12   33 1
  23   13   14 1
  24   13   34 1
  25   13   35 1
  26   14   15 1
  27   14   19 1
  28   15   16 1
  29   15   36 1
  30   15   37 1
  31   16   38 1
  32   16   39 1
  33   17   18 1
  34   17   22 1
  35   17   40 1
  36   17   41 1
  37   18   19 1
  38   18   42 1
  39   18   43 1
  40   19   20 1
  41   19   24 1
  42   20   21 1
  43   20   44 1
  44   20   45 1
  45   21   22 1
  46   21   46 1
  47   21   47 1
  48   22   23 1
  49   22   48 1
  50   23   25 1
  51   24   49 1
  52   24   50 1
  53   24   51 1
  54   25   26 1
  55   25   52 1
  56   25   53 1
  57   26   54 1
  58   26   55 1
  59   26   56 1

#	End of record

