#	Name: ASD01911868
#	Creating user name:	WinNT
#	Creation time:	15. 06. 2019 19:58

#	Modifying user name:	WinNT
#	Modification time:	15. 06. 2019 19:58

#	Program:	/corina/corina34_cracker 3.40 0067  02.08.2006

@<TRIPOS>MOLECULE
ASD01911868
  40   42    0    0    0
SMALL
NO_CHARGES


@<TRIPOS>ATOM
   1 C1            -1.0578    -0.4838    -2.0450 C.ar    
   2 C2            -1.0629     0.0679    -0.7674 C.ar    
   3 C3            -1.0161     1.4475    -0.6293 C.ar    
   4 N4            -0.9674     2.2285    -1.6903 N.ar    
   5 C5            -0.9612     1.7379    -2.9141 C.ar    
   6 C6            -1.0059     0.3733    -3.1320 C.ar    
   7 O7            -1.1135    -0.7333     0.3291 O.3     
   8 C8            -1.1591    -2.0774     0.1355 C.ar    
   9 C9            -0.0046    -2.7698    -0.2033 C.ar    
  10 C10           -0.0497    -4.1376    -0.4010 C.ar    
  11 C11           -1.2446    -4.8195    -0.2615 C.ar    
  12 C12           -2.4024    -4.1311     0.0773 C.ar    
  13 C13           -2.3573    -2.7588     0.2817 C.ar    
  14 N14           -3.6109    -4.8205     0.2180 N.am    
  15 C15           -3.6143    -6.0883     0.6752 C.2     
  16 C16           -4.8787    -6.8526     0.7253 C.ar    
  17 O17           -2.5776    -6.6033     1.0464 O.2     
  18 C18           -6.0707    -6.2624     0.2992 C.ar    
  19 C19           -7.2528    -6.9748     0.3453 C.ar    
  20 C20           -7.2656    -8.2737     0.8126 C.ar    
  21 C21           -6.0803    -8.8767     1.2422 C.ar    
  22 C22           -4.8829    -8.1654     1.1925 C.ar    
  23 C23           -6.0951   -10.2241     1.7268 C.1     
  24 Cl24           1.3958    -5.0001    -0.8257 Cl      
  25 C25           -0.9050     2.6772    -4.0912 C.3     
  26 N26           -6.1069   -11.2930     2.1112 N.1     
  27 H27           -1.0891    -1.5542    -2.1855 H       
  28 H28           -1.0199     1.8862     0.3576 H       
  29 H29           -1.0001    -0.0197    -4.1380 H       
  30 H30            0.9298    -2.2395    -0.3128 H       
  31 H31           -1.2777    -5.8879    -0.4164 H       
  32 H32           -3.2563    -2.2214     0.5453 H       
  33 H33           -4.4468    -4.3862    -0.0136 H       
  34 H34           -6.0679    -5.2463    -0.0669 H       
  35 H35           -8.1716    -6.5135     0.0145 H       
  36 H36           -8.1937    -8.8250     0.8467 H       
  37 H37           -3.9640    -8.6265     1.5232 H       
  38 H38            0.1353     2.8672    -4.3552 H       
  39 H39           -1.4189     2.2267    -4.9404 H       
  40 H40           -1.3909     3.6172    -3.8295 H       
@<TRIPOS>BOND
   1    1    2 ar
   2    1    6 ar
   3    1   27 1
   4    2    3 ar
   5    2    7 1
   6    3    4 ar
   7    3   28 1
   8    4    5 ar
   9    5    6 ar
  10    5   25 1
  11    6   29 1
  12    7    8 1
  13    8    9 ar
  14    8   13 ar
  15    9   10 ar
  16    9   30 1
  17   10   11 ar
  18   10   24 1
  19   11   12 ar
  20   11   31 1
  21   12   13 ar
  22   12   14 1
  23   13   32 1
  24   14   15 am
  25   14   33 1
  26   15   16 1
  27   15   17 2
  28   16   18 ar
  29   16   22 ar
  30   18   19 ar
  31   18   34 1
  32   19   20 ar
  33   19   35 1
  34   20   21 ar
  35   20   36 1
  36   21   22 ar
  37   21   23 1
  38   22   37 1
  39   23   26 3
  40   25   38 1
  41   25   39 1
  42   25   40 1

#	End of record

