#	Name: ASD03330799
#	Creating user name:	WinNT
#	Creation time:	15. 06. 2019 20:38

#	Modifying user name:	WinNT
#	Modification time:	15. 06. 2019 20:38

#	Program:	/corina/corina34_cracker 3.40 0067  02.08.2006

@<TRIPOS>MOLECULE
ASD03330799
  60   62    0    0    0
SMALL
NO_CHARGES


@<TRIPOS>ATOM
   1 C1             0.7796     1.4281     0.2191 C.2     
   2 N2             0.6850     0.0723     0.2673 N.pl3   
   3 C3             2.0967     1.7319     0.0550 C.2     
   4 N4             2.7828     0.5696    -0.0120 N.2     
   5 C5             1.9428    -0.4318     0.1087 C.2     
   6 C6             2.3001    -1.8663     0.0784 C.ar    
   7 C7             2.6711     3.0859    -0.0340 C.2     
   8 O8             1.9465     4.0600     0.0399 O.2     
   9 C9             4.5705     4.5912    -0.2860 C.3     
  10 N10            3.9994     3.2450    -0.1974 N.am    
  11 C11            5.8895     4.5358    -1.0593 C.3     
  12 C12            4.8237     5.1218     1.1017 C.2     
  13 O13            4.5536     4.4423     2.0693 O.2     
  14 C14           -0.5524    -0.6865     0.4687 C.3     
  15 C15           -1.6388    -0.1311    -0.4575 C.3     
  16 C16           -2.3659     1.0189     0.2319 C.3     
  17 N17           -1.4558     1.7774     1.0924 N.3     
  18 C18           -0.3727     2.3944     0.3124 C.3     
  19 C19            1.8053    -2.7322     1.0546 C.ar    
  20 C20            2.1410    -4.0691     1.0218 C.ar    
  21 C21           -2.1860     2.7875     1.8700 C.3     
  22 N22            5.3501     6.3513     1.2673 N.am    
  23 C23            2.9690    -4.5552     0.0217 C.ar    
  24 C24            5.6114     4.1577    -2.5155 C.3     
  25 C25            3.1298    -2.3613    -0.9313 C.ar    
  26 C26            3.4640    -3.7022    -0.9506 C.ar    
  27 C27            4.5836     5.1250    -3.1062 C.3     
  28 C28            6.9100     4.2392    -3.3205 C.3     
  29 C29            5.0626     2.7309    -2.5761 C.3     
  30 F30            3.2947    -5.8661    -0.0042 F       
  31 F31            3.6081    -1.5303    -1.8830 F       
  32 H32            3.8726     5.2486    -0.8046 H       
  33 H33            4.5773     2.4682    -0.2564 H       
  34 H34            6.3731     5.5120    -1.0233 H       
  35 H35            6.5438     3.7895    -0.6087 H       
  36 H36           -0.3775    -1.7370     0.2362 H       
  37 H37           -0.8739    -0.5906     1.5058 H       
  38 H38           -1.1803     0.2300    -1.3781 H       
  39 H39           -2.3518    -0.9207    -0.6942 H       
  40 H40           -2.7806     1.6847    -0.5249 H       
  41 H41           -3.1783     0.6167     0.8371 H       
  42 H42           -0.0428     3.3084     0.8064 H       
  43 H43           -0.7330     2.6297    -0.6890 H       
  44 H44            1.1607    -2.3555     1.8350 H       
  45 H45            1.7581    -4.7392     1.7773 H       
  46 H46           -2.9305     2.2958     2.4961 H       
  47 H47           -1.4864     3.3364     2.5004 H       
  48 H48           -2.6829     3.4799     1.1904 H       
  49 H49            5.5661     6.8948     0.4934 H       
  50 H50            5.5131     6.6928     2.1605 H       
  51 H51            4.1051    -4.0870    -1.7300 H       
  52 H52            4.9747     6.1415    -3.0631 H       
  53 H53            4.3855     4.8557    -4.1437 H       
  54 H54            3.6585     5.0669    -2.5328 H       
  55 H55            7.6422     3.5501    -2.8997 H       
  56 H56            6.7119     3.9699    -4.3580 H       
  57 H57            7.3010     5.2558    -3.2774 H       
  58 H58            4.0629     2.7074    -2.1423 H       
  59 H59            5.0157     2.4034    -3.6147 H       
  60 H60            5.7181     2.0653    -2.0145 H       
@<TRIPOS>BOND
   1    1    2 1
   2    1    3 2
   3    1   18 1
   4    2   14 1
   5    2    5 1
   6    3    4 1
   7    3    7 1
   8    4    5 2
   9    5    6 1
  10    6   25 ar
  11    6   19 ar
  12    7    8 2
  13    7   10 am
  14    9   10 1
  15    9   11 1
  16    9   12 1
  17    9   32 1
  18   10   33 1
  19   11   24 1
  20   11   34 1
  21   11   35 1
  22   12   13 2
  23   12   22 am
  24   14   15 1
  25   14   36 1
  26   14   37 1
  27   15   16 1
  28   15   38 1
  29   15   39 1
  30   16   17 1
  31   16   40 1
  32   16   41 1
  33   17   18 1
  34   17   21 1
  35   18   42 1
  36   18   43 1
  37   19   20 ar
  38   19   44 1
  39   20   23 ar
  40   20   45 1
  41   21   46 1
  42   21   47 1
  43   21   48 1
  44   22   49 1
  45   22   50 1
  46   23   30 1
  47   23   26 ar
  48   24   27 1
  49   24   28 1
  50   24   29 1
  51   25   26 ar
  52   25   31 1
  53   26   51 1
  54   27   52 1
  55   27   53 1
  56   27   54 1
  57   28   55 1
  58   28   56 1
  59   28   57 1
  60   29   58 1
  61   29   59 1
  62   29   60 1

#	End of record

