#	Name: ASD05310011
#	Creating user name:	WinNT
#	Creation time:	15. 06. 2019 20:58

#	Modifying user name:	WinNT
#	Modification time:	15. 06. 2019 20:58

#	Program:	/corina/corina34_cracker 3.40 0067  02.08.2006

@<TRIPOS>MOLECULE
ASD05310011
  65   67    0    0    0
SMALL
NO_CHARGES


@<TRIPOS>ATOM
   1 O1             1.3617    -2.6459     2.7893 O.2     
   2 O2            -1.8329     1.2538     1.5486 O.3     
   3 O3            -3.9782    -0.4126     2.0044 O.3     
   4 N4             3.0451    -3.4067     1.5608 N.am    
   5 N5             3.8502    -5.1482     2.9900 N.2     
   6 N6             3.1196    -4.7646     5.1587 N.pl3   
   7 N7             3.3863    -6.9876     4.3309 N.pl3   
   8 N8             3.9493    -3.0715     9.5897 N.ar    
   9 N9             2.4112    -7.8972     6.4349 N.1     
  10 C10            5.2752    -3.2108     2.5457 C.3     
  11 C11            3.8414    -3.7023     2.7545 C.3     
  12 C12            5.2660    -1.7007     2.2998 C.3     
  13 C13            6.1067    -3.5194     3.7924 C.3     
  14 C14            5.8866    -3.9208     1.3362 C.3     
  15 C15            1.8121    -2.8775     1.6873 C.2     
  16 C16            0.9930    -2.5735     0.4593 C.3     
  17 C17            3.4595    -5.6234     4.1379 C.2     
  18 C18           -0.3351    -1.9934     0.8724 C.ar    
  19 C19            3.8518    -4.7676     6.3452 C.ar    
  20 C20           -0.4741    -0.6261     1.0214 C.ar    
  21 C21           -1.4134    -2.8293     1.0958 C.ar    
  22 C22            3.5121    -3.8876     7.3942 C.ar    
  23 C23           -1.6946    -0.0911     1.4011 C.ar    
  24 C24            4.9147    -5.6316     6.5053 C.ar    
  25 C25           -2.6338    -2.3021     1.4748 C.ar    
  26 C26            4.2668    -3.9044     8.5927 C.ar    
  27 C27           -2.7783    -0.9329     1.6316 C.ar    
  28 C28            2.4373    -2.9900     7.2767 C.ar    
  29 C29            5.6496    -5.6402     7.6866 C.ar    
  30 C30            5.3425    -4.8008     8.7137 C.ar    
  31 C31            2.8559    -7.4824     5.4754 C.1     
  32 C32            2.1665    -2.1657     8.3329 C.ar    
  33 C33            2.9474    -2.2323     9.4838 C.ar    
  34 C34           -0.6779     2.0563     1.2958 C.3     
  35 C35           -5.0460    -1.3366     2.2238 C.3     
  36 H36            3.4058    -3.1965     3.6162 H       
  37 H37            6.1133    -4.5952     3.9676 H       
  38 H38            7.1282    -3.1693     3.6436 H       
  39 H39            5.2942    -3.7009     0.4480 H       
  40 H40            6.9080    -3.5707     1.1874 H       
  41 H41            5.8931    -4.9966     1.5114 H       
  42 H42            4.8304    -1.1949     3.1614 H       
  43 H43            6.2874    -1.3506     2.1510 H       
  44 H44            4.6735    -1.4809     1.4116 H       
  45 H45            5.6711    -3.0136     4.6540 H       
  46 H46            3.4054    -3.5920     0.6794 H       
  47 H47            1.5254    -1.8549    -0.1638 H       
  48 H48            0.8289    -3.4918    -0.1044 H       
  49 H49            2.3707    -4.1573     5.0525 H       
  50 H50            3.7145    -7.5925     3.6473 H       
  51 H51            0.3687     0.0251     0.8423 H       
  52 H52           -1.3021    -3.8966     0.9737 H       
  53 H53            5.1791    -6.3081     5.7060 H       
  54 H54           -3.4746    -2.9573     1.6484 H       
  55 H55            1.8423    -2.9518     6.3763 H       
  56 H56            6.4781    -6.3250     7.7909 H       
  57 H57            5.9260    -4.8238     9.6222 H       
  58 H58            1.3476    -1.4640     8.2750 H       
  59 H59            2.7218    -1.5756    10.3110 H       
  60 H60           -0.9247     3.1068     1.4493 H       
  61 H61            0.1217     1.7675     1.9781 H       
  62 H62           -0.3495     1.9067     0.2673 H       
  63 H63           -5.9439    -0.7917     2.5154 H       
  64 H64           -5.2400    -1.8922     1.3063 H       
  65 H65           -4.7686    -2.0308     3.0171 H       
@<TRIPOS>BOND
   1    1   15 2
   2    2   23 1
   3    2   34 1
   4    3   27 1
   5    3   35 1
   6    4   11 1
   7    4   15 am
   8    4   46 1
   9    5   11 1
  10    5   17 2
  11    6   17 1
  12    6   19 1
  13    6   49 1
  14    7   17 1
  15    7   31 1
  16    7   50 1
  17    8   26 ar
  18    8   33 ar
  19    9   31 3
  20   10   11 1
  21   10   12 1
  22   10   13 1
  23   10   14 1
  24   11   36 1
  25   12   42 1
  26   12   43 1
  27   12   44 1
  28   13   37 1
  29   13   38 1
  30   13   45 1
  31   14   39 1
  32   14   40 1
  33   14   41 1
  34   15   16 1
  35   16   18 1
  36   16   47 1
  37   16   48 1
  38   18   20 ar
  39   18   21 ar
  40   19   22 ar
  41   19   24 ar
  42   20   23 ar
  43   20   51 1
  44   21   25 ar
  45   21   52 1
  46   22   26 ar
  47   22   28 ar
  48   23   27 ar
  49   24   29 ar
  50   24   53 1
  51   25   27 ar
  52   25   54 1
  53   26   30 ar
  54   28   32 ar
  55   28   55 1
  56   29   30 ar
  57   29   56 1
  58   30   57 1
  59   32   33 ar
  60   32   58 1
  61   33   59 1
  62   34   60 1
  63   34   61 1
  64   34   62 1
  65   35   63 1
  66   35   64 1
  67   35   65 1

#	End of record

