#	Name: ASD01028523
#	Creating user name:	WinNT
#	Creation time:	15. 06. 2019 18:57

#	Modifying user name:	WinNT
#	Modification time:	15. 06. 2019 18:57

#	Program:	/corina/corina34_cracker 3.40 0067  02.08.2006

@<TRIPOS>MOLECULE
ASD01028523
  39   42    0    0    0
SMALL
NO_CHARGES


@<TRIPOS>ATOM
   1 C1            -0.0162     1.3467     0.0094 C.2     
   2 N2             0.0021    -0.0041     0.0020 N.pl3   
   3 C3            -1.3141    -0.4013     0.0130 C.2     
   4 N4            -2.0463     0.7006     0.0261 N.2     
   5 N5            -1.2694     1.7271     0.0292 N.2     
   6 N6             1.0212    -0.9584    -0.0136 N.2     
   7 C7             0.7333    -2.2412    -0.0180 C.2     
   8 C8            -0.6076    -2.6804    -0.0075 C.2     
   9 C9            -1.6212    -1.7751     0.0087 C.2     
  10 C10            1.8313    -3.2388    -0.0347 C.ar    
  11 C11            3.1594    -2.8170    -0.0456 C.ar    
  12 C12            4.1768    -3.7494    -0.0607 C.ar    
  13 C13            3.8802    -5.1005    -0.0649 C.ar    
  14 C14            2.5637    -5.5249    -0.0540 C.ar    
  15 C15            1.5384    -4.6012    -0.0336 C.ar    
  16 C16            1.1881     2.2526     0.0028 C.3     
  17 C17            1.5760     2.5621    -1.4201 C.ar    
  18 C18            1.0337     3.6612    -2.0597 C.ar    
  19 C19            1.3877     3.9472    -3.3642 C.ar    
  20 C20            2.2881     3.1304    -4.0322 C.ar    
  21 C21            2.8310     2.0279    -3.3881 C.ar    
  22 C22            2.4782     1.7495    -2.0820 C.ar    
  23 O23            2.6375     3.4093    -5.3156 O.3     
  24 N24            0.8063     5.1237    -4.0485 N.pl3   
  25 O25            0.0154     5.8404    -3.4616 O.2     
  26 O26            1.1187     5.3754    -5.1986 O.2     
  27 H27           -0.8288    -3.7375    -0.0120 H       
  28 H28           -2.6494    -2.1055     0.0167 H       
  29 H29            3.3921    -1.7623    -0.0427 H       
  30 H30            5.2065    -3.4236    -0.0695 H       
  31 H31            4.6795    -5.8267    -0.0770 H       
  32 H32            2.3378    -6.5810    -0.0577 H       
  33 H33            0.5109    -4.9337    -0.0252 H       
  34 H34            0.9485     3.1795     0.5239 H       
  35 H35            2.0183     1.7570     0.5061 H       
  36 H36            0.3324     4.2966    -1.5392 H       
  37 H37            3.5322     1.3904    -3.9061 H       
  38 H38            2.9005     0.8915    -1.5802 H       
  39 H39            3.4071     3.9893    -5.3965 H       
@<TRIPOS>BOND
   1    1    2 1
   2    1   16 1
   3    1    5 2
   4    2    3 1
   5    2    6 1
   6    3    4 2
   7    3    9 1
   8    4    5 1
   9    6    7 2
  10    7    8 1
  11    7   10 1
  12    8    9 2
  13    8   27 1
  14    9   28 1
  15   10   11 ar
  16   10   15 ar
  17   11   12 ar
  18   11   29 1
  19   12   13 ar
  20   12   30 1
  21   13   14 ar
  22   13   31 1
  23   14   15 ar
  24   14   32 1
  25   15   33 1
  26   16   17 1
  27   16   34 1
  28   16   35 1
  29   17   18 ar
  30   17   22 ar
  31   18   19 ar
  32   18   36 1
  33   19   20 ar
  34   19   24 1
  35   20   21 ar
  36   20   23 1
  37   21   22 ar
  38   21   37 1
  39   22   38 1
  40   23   39 1
  41   24   25 2
  42   24   26 2

#	End of record

