#	Name: ASD01208628
#	Creating user name:	WinNT
#	Creation time:	15. 06. 2019 19:10

#	Modifying user name:	WinNT
#	Modification time:	15. 06. 2019 19:10

#	Program:	/corina/corina34_cracker 3.40 0067  02.08.2006

@<TRIPOS>MOLECULE
ASD01208628
  14   14    0    0    0
SMALL
NO_CHARGES


@<TRIPOS>ATOM
   1 C1            -0.0168     1.3856     0.0097 C.ar    
   2 C2             0.0021    -0.0041     0.0020 C.ar    
   3 C3             1.2332    -0.6382    -0.0131 C.ar    
   4 C4             2.3787     0.1590    -0.0198 C.ar    
   5 N5             2.2603     1.4787    -0.0116 N.ar    
   6 N6             1.1162     2.0604     0.0025 N.ar    
   7 S7             3.9753    -0.5861    -0.0385 S.3     
   8 C8             5.0925     0.8430    -0.0417 C.3     
   9 Cl9           -1.5318     2.2331     0.0215 Cl      
  10 H10           -0.9161    -0.5726     0.0081 H       
  11 H11            1.3046    -1.7158    -0.0193 H       
  12 H12            6.1259     0.4964    -0.0531 H       
  13 H13            4.9032     1.4502    -0.9269 H       
  14 H14            4.9198     1.4412     0.8530 H       
@<TRIPOS>BOND
   1    1    2 ar
   2    1    6 ar
   3    1    9 1
   4    2    3 ar
   5    2   10 1
   6    3    4 ar
   7    3   11 1
   8    4    5 ar
   9    4    7 1
  10    5    6 ar
  11    7    8 1
  12    8   12 1
  13    8   13 1
  14    8   14 1

#	End of record

