#	Name: ASD01885687
#	Creating user name:	WinNT
#	Creation time:	15. 06. 2019 19:50

#	Modifying user name:	WinNT
#	Modification time:	15. 06. 2019 19:50

#	Program:	/corina/corina34_cracker 3.40 0067  02.08.2006

@<TRIPOS>MOLECULE
ASD01885687
  55   58    0    0    0
SMALL
NO_CHARGES


@<TRIPOS>ATOM
   1 C1            -0.1297     1.5741    -0.2538 C.ar    
   2 C2             1.0826     2.3092    -0.2584 C.ar    
   3 C3             2.3119     1.6095    -0.3563 C.ar    
   4 C4             2.2662     0.2249    -0.4438 C.ar    
   5 C5             1.0273    -0.4259    -0.4326 C.ar    
   6 N6            -0.1060     0.2439    -0.3412 N.ar    
   7 C7            -1.3473     3.6284    -0.0743 C.ar    
   8 C8            -0.1527     4.3463    -0.0748 C.ar    
   9 C9             1.0469     3.7068    -0.1671 C.ar    
  10 C10            3.6038     2.3331    -0.3656 C.ar    
  11 C11            0.9870    -1.9052    -0.5274 C.2     
  12 C12           -2.6567     4.3678     0.0238 C.3     
  13 C13           -1.3502     2.2709    -0.1619 C.ar    
  14 N14           -0.1971    -2.5489    -0.5195 N.am    
  15 O15            2.0214    -2.5369    -0.6121 O.2     
  16 N16           -3.0281     4.5184     1.4329 N.pl3   
  17 N17           -3.1529     3.4803     2.3639 N.2     
  18 C18           -3.4977     3.9930     3.5149 C.2     
  19 C19           -3.6059     5.3896     3.3570 C.2     
  20 C20           -3.3028     5.6807     2.0573 C.2     
  21 C21            4.6318     1.9409     0.4922 C.ar    
  22 C22            5.8333     2.6177     0.4795 C.ar    
  23 C23            6.0204     3.6862    -0.3832 C.ar    
  24 C24            5.0022     4.0797    -1.2372 C.ar    
  25 C25            3.7990     3.4057    -1.2362 C.ar    
  26 F26            7.1989     4.3466    -0.3913 F       
  27 C27           -3.9755     6.3639     4.4095 C.2     
  28 O28           -4.3629     5.9253     5.6352 O.3     
  29 C29           -3.9280     7.6695     4.1541 C.2     
  30 C30           -4.7052     6.9203     6.6021 C.3     
  31 C31           -5.1131     6.2408     7.9108 C.3     
  32 C32           -3.7382     3.2252     4.7892 C.3     
  33 F33           -3.5098     1.8636     4.5634 F       
  34 F34           -2.8673     3.6857     5.7825 F       
  35 F35           -5.0607     3.4136     5.2046 F       
  36 H36            3.1799    -0.3459    -0.5202 H       
  37 H37           -0.1784     5.4237    -0.0049 H       
  38 H38            1.9657     4.2745    -0.1695 H       
  39 H39           -2.5529     5.3526    -0.4319 H       
  40 H40           -3.4313     3.8059    -0.4981 H       
  41 H41           -2.2847     1.7296    -0.1614 H       
  42 H42           -1.0229    -2.0445    -0.4518 H       
  43 H43           -0.2234    -3.5166    -0.5815 H       
  44 H44           -3.2919     6.6635     1.6096 H       
  45 H45            4.4867     1.1088     1.1653 H       
  46 H46            6.6297     2.3148     1.1432 H       
  47 H47            5.1527     4.9131    -1.9074 H       
  48 H48            3.0064     3.7128    -1.9023 H       
  49 H49           -4.2825     8.3768     4.8893 H       
  50 H50           -3.5349     8.0215     3.2118 H       
  51 H51           -3.8445     7.5650     6.7803 H       
  52 H52           -5.5363     7.5188     6.2290 H       
  53 H53           -5.3741     6.9999     8.6483 H       
  54 H54           -5.9738     5.5962     7.7326 H       
  55 H55           -4.2820     5.6424     8.2839 H       
@<TRIPOS>BOND
   1    1    6 ar
   2    1    2 ar
   3    1   13 ar
   4    2    3 ar
   5    2    9 ar
   6    3   10 1
   7    3    4 ar
   8    4    5 ar
   9    4   36 1
  10    5   11 1
  11    5    6 ar
  12    7   12 1
  13    7   13 ar
  14    7    8 ar
  15    8    9 ar
  16    8   37 1
  17    9   38 1
  18   10   21 ar
  19   10   25 ar
  20   11   14 am
  21   11   15 2
  22   12   16 1
  23   12   39 1
  24   12   40 1
  25   13   41 1
  26   14   42 1
  27   14   43 1
  28   16   17 1
  29   16   20 1
  30   17   18 2
  31   18   19 1
  32   18   32 1
  33   19   20 2
  34   19   27 1
  35   20   44 1
  36   21   22 ar
  37   21   45 1
  38   22   23 ar
  39   22   46 1
  40   23   24 ar
  41   23   26 1
  42   24   25 ar
  43   24   47 1
  44   25   48 1
  45   27   28 1
  46   27   29 2
  47   28   30 1
  48   29   49 1
  49   29   50 1
  50   30   31 1
  51   30   51 1
  52   30   52 1
  53   31   53 1
  54   31   54 1
  55   31   55 1
  56   32   33 1
  57   32   34 1
  58   32   35 1

#	End of record

