#	Name: ASD01510118
#	Creating user name:	WinNT
#	Creation time:	15. 06. 2019 19:21

#	Modifying user name:	WinNT
#	Modification time:	15. 06. 2019 19:21

#	Program:	/corina/corina34_cracker 3.40 0067  02.08.2006

@<TRIPOS>MOLECULE
ASD01510118
  59   62    0    0    0
SMALL
NO_CHARGES


@<TRIPOS>ATOM
   1 C1             2.3439     1.1203    -0.4769 C.3     
   2 N2             2.0143    -0.3100    -0.4169 N.3     
   3 C3             2.6300    -0.9435     0.7575 C.3     
   4 C4             2.1988    -2.4104     0.8273 C.3     
   5 N5             2.6009    -3.0959    -0.4088 N.3     
   6 C6             1.9851    -2.4623    -1.5831 C.3     
   7 C7             2.4163    -0.9955    -1.6530 C.3     
   8 C8             2.2897    -4.4460    -0.3521 C.ar    
   9 N9             1.7066    -4.9273     0.7343 N.ar    
  10 C10            1.3928    -6.2116     0.8273 C.ar    
  11 C11            1.6829    -7.0572    -0.2337 C.ar    
  12 C12            2.2998    -6.5148    -1.3674 C.ar    
  13 N13            2.5791    -5.2183    -1.3891 N.ar    
  14 O14            2.6031    -7.3020    -2.4289 O.3     
  15 C15            3.2317    -6.6707    -3.5462 C.3     
  16 C16            3.4908    -7.6945    -4.6213 C.ar    
  17 C17            2.5350    -7.9363    -5.5903 C.ar    
  18 C18            2.7727    -8.8753    -6.5765 C.ar    
  19 C19            3.9664    -9.5723    -6.5939 C.ar    
  20 C20            4.9226    -9.3298    -5.6255 C.ar    
  21 C21            4.6866    -8.3876    -4.6418 C.ar    
  22 S22            1.2851    -8.7719    -0.1560 S.3     
  23 C23            0.6969    -8.9680     1.4933 C.ar    
  24 C24           -0.6632    -8.8692     1.7635 C.ar    
  25 C25           -1.1247    -9.0224     3.0566 C.ar    
  26 C26           -0.2370    -9.2746     4.0849 C.ar    
  27 C27            1.1239    -9.3751     3.8217 C.ar    
  28 C28            1.5907    -9.2272     2.5242 C.ar    
  29 N29            2.0217    -9.6305     4.8642 N.am    
  30 C30            1.6459   -10.4021     5.9033 C.2     
  31 O31            0.5644   -10.9511     5.8911 O.2     
  32 C32            2.5693   -10.5827     7.0804 C.3     
  33 H33            3.4253     1.2415    -0.5412 H       
  34 H34            1.8757     1.5645    -1.3553 H       
  35 H35            1.9755     1.6161     0.4211 H       
  36 H36            3.7154    -0.8872     0.6739 H       
  37 H37            2.3073    -0.4262     1.6609 H       
  38 H38            2.6774    -2.8898     1.6812 H       
  39 H39            1.1159    -2.4662     0.9384 H       
  40 H40            2.3079    -2.9797    -2.4866 H       
  41 H41            0.8998    -2.5187    -1.4995 H       
  42 H42            1.9378    -0.5160    -2.5069 H       
  43 H43            3.4992    -0.9397    -1.7640 H       
  44 H44            0.9175    -6.5952     1.7180 H       
  45 H45            2.5787    -5.8904    -3.9373 H       
  46 H46            4.1766    -6.2290    -3.2298 H       
  47 H47            1.6024    -7.3918    -5.5767 H       
  48 H48            2.0257    -9.0648    -7.3331 H       
  49 H49            4.1518   -10.3065    -7.3640 H       
  50 H50            5.8550    -9.8746    -5.6389 H       
  51 H51            5.4336    -8.1982    -3.8852 H       
  52 H52           -1.3597    -8.6722     0.9619 H       
  53 H53           -2.1817    -8.9446     3.2642 H       
  54 H54           -0.6012    -9.3935     5.0947 H       
  55 H55            2.6478    -9.3052     2.3171 H       
  56 H56            2.9145    -9.2523     4.8389 H       
  57 H57            3.4865   -10.0181     6.9127 H       
  58 H58            2.0802   -10.2210     7.9849 H       
  59 H59            2.8093   -11.6398     7.1951 H       
@<TRIPOS>BOND
   1    1    2 1
   2    1   33 1
   3    1   34 1
   4    1   35 1
   5    2    3 1
   6    2    7 1
   7    3    4 1
   8    3   36 1
   9    3   37 1
  10    4    5 1
  11    4   38 1
  12    4   39 1
  13    5    6 1
  14    5    8 1
  15    6    7 1
  16    6   40 1
  17    6   41 1
  18    7   42 1
  19    7   43 1
  20    8    9 ar
  21    8   13 ar
  22    9   10 ar
  23   10   11 ar
  24   10   44 1
  25   11   12 ar
  26   11   22 1
  27   12   13 ar
  28   12   14 1
  29   14   15 1
  30   15   16 1
  31   15   45 1
  32   15   46 1
  33   16   17 ar
  34   16   21 ar
  35   17   18 ar
  36   17   47 1
  37   18   19 ar
  38   18   48 1
  39   19   20 ar
  40   19   49 1
  41   20   21 ar
  42   20   50 1
  43   21   51 1
  44   22   23 1
  45   23   24 ar
  46   23   28 ar
  47   24   25 ar
  48   24   52 1
  49   25   26 ar
  50   25   53 1
  51   26   27 ar
  52   26   54 1
  53   27   28 ar
  54   27   29 1
  55   28   55 1
  56   29   30 am
  57   29   56 1
  58   30   31 2
  59   30   32 1
  60   32   57 1
  61   32   58 1
  62   32   59 1

#	End of record

