#	Name: ASD01816594
#	Creating user name:	WinNT
#	Creation time:	15. 06. 2019 19:35

#	Modifying user name:	WinNT
#	Modification time:	15. 06. 2019 19:35

#	Program:	/corina/corina34_cracker 3.40 0067  02.08.2006

@<TRIPOS>MOLECULE
ASD01816594
  73   79    0    0    0
SMALL
NO_CHARGES


@<TRIPOS>ATOM
   1 C1            -0.0167     1.3807     0.0096 C.ar    
   2 C2             0.0021    -0.0041     0.0020 C.ar    
   3 C3            -1.1754    -0.7253     0.0098 C.ar    
   4 C4            -2.3995    -0.0671     0.0255 C.ar    
   5 C5            -2.4232     1.3374     0.0333 C.ar    
   6 C6            -1.2280     2.0603     0.0307 C.ar    
   7 N7            -3.5815    -0.7892     0.0329 N.pl3   
   8 C8            -4.7923    -0.2091     0.0480 C.2     
   9 C9            -4.9388     1.1556     0.0572 C.2     
  10 C10           -3.7325     2.0146     0.0500 C.2     
  11 C11           -6.0660     2.0827     0.0739 C.2     
  12 N12           -5.5330     3.3236     0.0760 N.am    
  13 N13           -4.1377     3.2524     0.0614 N.2     
  14 C14           -6.2728     4.5116     0.0907 C.ar    
  15 O15           -7.2518     1.7946     0.0835 O.2     
  16 F16            1.1444     2.0713     0.0023 F       
  17 C17           -7.2158     4.7319     1.0862 C.ar    
  18 C18           -7.9443     5.9053     1.0978 C.ar    
  19 C19           -7.7355     6.8601     0.1197 C.ar    
  20 C20           -6.7971     6.6439    -0.8731 C.ar    
  21 C21           -6.0614     5.4754    -0.8872 C.ar    
  22 N22           -1.2508     3.4561     0.0384 N.3     
  23 C23           -0.5672     3.9873     1.2252 C.3     
  24 C24           -0.6121     5.4934     1.1988 C.ar    
  25 C25           -1.6670     6.1627     1.7915 C.ar    
  26 C26           -1.7108     7.5430     1.7689 C.ar    
  27 C27           -0.6944     8.2585     1.1504 C.ar    
  28 C28            0.3634     7.5836     0.5562 C.ar    
  29 C29            0.4046     6.2033     0.5869 C.ar    
  30 N30           -0.7364     9.6595     1.1254 N.pl3   
  31 N31           -1.7385    10.4643     1.6825 N.2     
  32 C32            0.1863    10.4734     0.5644 C.2     
  33 C33           -0.2204    11.7499     0.7552 C.2     
  34 C34           -1.4294    11.7162     1.4587 C.2     
  35 C35           -3.5072    -2.2522     0.0233 C.3     
  36 C36           -3.4676    -2.7625     1.4407 C.ar    
  37 C37           -4.6459    -3.0571     2.1013 C.ar    
  38 C38           -4.6123    -3.5250     3.4007 C.ar    
  39 C39           -3.3949    -3.6993     4.0427 C.ar    
  40 C40           -2.2140    -3.4030     3.3776 C.ar    
  41 C41           -2.2527    -2.9407     2.0763 C.ar    
  42 C42           -5.0389     5.2408    -1.9690 C.3     
  43 O43           -3.3592    -4.1590     5.3210 O.3     
  44 C44           -2.0706    -4.3140     5.9190 C.3     
  45 H45            0.9478    -0.5254    -0.0105 H       
  46 H46           -1.1450    -1.8048     0.0034 H       
  47 H47           -5.6741    -0.8327     0.0526 H       
  48 H48           -7.3796     3.9863     1.8502 H       
  49 H49           -8.6780     6.0771     1.8714 H       
  50 H50           -8.3066     7.7767     0.1308 H       
  51 H51           -6.6364     7.3917    -1.6356 H       
  52 H52           -0.8477     3.8290    -0.8082 H       
  53 H53           -1.0656     3.6246     2.1242 H       
  54 H54            0.4708     3.6546     1.2259 H       
  55 H55           -2.4575     5.6056     2.2722 H       
  56 H56           -2.5352     8.0653     2.2317 H       
  57 H57            1.1553     8.1374     0.0739 H       
  58 H58            1.2274     5.6778     0.1252 H       
  59 H59            1.0864    10.1609     0.0559 H       
  60 H60            0.2981    12.6379     0.4252 H       
  61 H61           -2.0083    12.5754     1.7638 H       
  62 H62           -4.3827    -2.6572    -0.4844 H       
  63 H63           -2.6051    -2.5668    -0.5015 H       
  64 H64           -5.5935    -2.9209     1.6013 H       
  65 H65           -5.5330    -3.7546     3.9164 H       
  66 H66           -1.2650    -3.5378     3.8752 H       
  67 H67           -1.3337    -2.7099     1.5582 H       
  68 H68           -4.0731     5.6301    -1.6467 H       
  69 H69           -4.9534     4.1715    -2.1625 H       
  70 H70           -5.3505     5.7512    -2.8804 H       
  71 H71           -1.4825    -5.0231     5.3362 H       
  72 H72           -1.5615    -3.3505     5.9399 H       
  73 H73           -2.1848    -4.6868     6.9368 H       
@<TRIPOS>BOND
   1    1    2 ar
   2    1   16 1
   3    1    6 ar
   4    2    3 ar
   5    2   45 1
   6    3    4 ar
   7    3   46 1
   8    4    5 ar
   9    4    7 1
  10    5    6 ar
  11    5   10 1
  12    6   22 1
  13    7    8 1
  14    7   35 1
  15    8    9 2
  16    8   47 1
  17    9   10 1
  18    9   11 1
  19   10   13 2
  20   11   12 am
  21   11   15 2
  22   12   13 1
  23   12   14 1
  24   14   17 ar
  25   14   21 ar
  26   17   18 ar
  27   17   48 1
  28   18   19 ar
  29   18   49 1
  30   19   20 ar
  31   19   50 1
  32   20   21 ar
  33   20   51 1
  34   21   42 1
  35   22   23 1
  36   22   52 1
  37   23   24 1
  38   23   53 1
  39   23   54 1
  40   24   25 ar
  41   24   29 ar
  42   25   26 ar
  43   25   55 1
  44   26   27 ar
  45   26   56 1
  46   27   28 ar
  47   27   30 1
  48   28   29 ar
  49   28   57 1
  50   29   58 1
  51   30   31 1
  52   30   32 1
  53   31   34 2
  54   32   33 2
  55   32   59 1
  56   33   34 1
  57   33   60 1
  58   34   61 1
  59   35   36 1
  60   35   62 1
  61   35   63 1
  62   36   37 ar
  63   36   41 ar
  64   37   38 ar
  65   37   64 1
  66   38   39 ar
  67   38   65 1
  68   39   40 ar
  69   39   43 1
  70   40   41 ar
  71   40   66 1
  72   41   67 1
  73   42   68 1
  74   42   69 1
  75   42   70 1
  76   43   44 1
  77   44   71 1
  78   44   72 1
  79   44   73 1

#	End of record

