#	Name: ASD01883607
#	Creating user name:	WinNT
#	Creation time:	15. 06. 2019 19:46

#	Modifying user name:	WinNT
#	Modification time:	15. 06. 2019 19:46

#	Program:	/corina/corina34_cracker 3.40 0067  02.08.2006

@<TRIPOS>MOLECULE
ASD01883607
  48   51    0    0    0
SMALL
NO_CHARGES


@<TRIPOS>ATOM
   1 C1            -2.0652     2.1207     0.1324 C.2     
   2 C2            -2.5171     0.8547     0.2570 C.2     
   3 N3            -1.7183    -0.1273     0.7518 N.am    
   4 C4            -0.4536     0.1295     1.1334 C.2     
   5 C5             0.0649     1.4267     1.0254 C.2     
   6 C6            -0.7430     2.4353     0.5206 C.2     
   7 O7             0.2437    -0.7702     1.5753 O.2     
   8 C8            -0.2291     3.8179     0.3915 C.ar    
   9 C9            -0.0849     4.3951    -0.8708 C.ar    
  10 C10            0.3938     5.6842    -0.9871 C.ar    
  11 C11            0.7325     6.4066     0.1525 C.ar    
  12 C12            0.5895     5.8334     1.4093 C.ar    
  13 C13            0.1064     4.5484     1.5321 C.ar    
  14 O14            1.2044     7.6750     0.0356 O.3     
  15 C15            1.6250     8.3046     1.1620 C.ar    
  16 C16            2.9439     8.1896     1.5943 C.ar    
  17 C17            3.3324     8.8453     2.7446 C.ar    
  18 N18            2.4723     9.5732     3.4312 N.ar    
  19 C19            1.2147     9.7063     3.0539 C.ar    
  20 C20            0.7500     9.0872     1.9121 C.ar    
  21 C21           -2.2436    -1.4895     0.8724 C.3     
  22 C22           -1.9643    -2.2600    -0.4196 C.3     
  23 C23            0.2762    10.5504     3.8771 C.3     
  24 C24           -2.3330    -3.7446    -0.4505 C.3     
  25 C25           -3.1696    -2.7321    -1.2352 C.3     
  26 F26            0.5341     6.2446    -2.2083 F       
  27 C27            1.4799     1.7222     1.4516 C.3     
  28 F28            1.5097     1.9732     2.8276 F       
  29 F29            2.2939     0.6222     1.1606 F       
  30 F30            1.9496     2.8453     0.7624 F       
  31 H31           -2.7102     2.8895    -0.2667 H       
  32 H32           -3.5282     0.6189    -0.0405 H       
  33 H33           -0.3472     3.8337    -1.7553 H       
  34 H34            0.8533     6.3970     2.2920 H       
  35 H35           -0.0043     4.1040     2.5102 H       
  36 H36            3.6528     7.5951     1.0370 H       
  37 H37            4.3531     8.7614     3.0874 H       
  38 H38           -0.2804     9.2002     1.6088 H       
  39 H39           -1.7581    -1.9935     1.7082 H       
  40 H40           -3.3188    -1.4502     1.0468 H       
  41 H41           -1.0747    -1.9509    -0.9684 H       
  42 H42            0.3043    11.5796     3.5191 H       
  43 H43           -0.7378    10.1613     3.7852 H       
  44 H44            0.5833    10.5209     4.9225 H       
  45 H45           -1.6863    -4.4121    -1.0200 H       
  46 H46           -2.7746    -4.1724     0.4496 H       
  47 H47           -4.1616    -2.4937    -0.8514 H       
  48 H48           -3.0733    -2.7334    -2.3209 H       
@<TRIPOS>BOND
   1    1    2 2
   2    1    6 1
   3    1   31 1
   4    2    3 1
   5    2   32 1
   6    3    4 am
   7    3   21 1
   8    4    5 1
   9    4    7 2
  10    5    6 2
  11    5   27 1
  12    6    8 1
  13    8    9 ar
  14    8   13 ar
  15    9   10 ar
  16    9   33 1
  17   10   11 ar
  18   10   26 1
  19   11   12 ar
  20   11   14 1
  21   12   13 ar
  22   12   34 1
  23   13   35 1
  24   14   15 1
  25   15   16 ar
  26   15   20 ar
  27   16   17 ar
  28   16   36 1
  29   17   18 ar
  30   17   37 1
  31   18   19 ar
  32   19   20 ar
  33   19   23 1
  34   20   38 1
  35   21   22 1
  36   21   39 1
  37   21   40 1
  38   22   24 1
  39   22   25 1
  40   22   41 1
  41   23   42 1
  42   23   43 1
  43   23   44 1
  44   24   25 1
  45   24   45 1
  46   24   46 1
  47   25   47 1
  48   25   48 1
  49   27   28 1
  50   27   29 1
  51   27   30 1

#	End of record

