#	Name: ASD01120241
#	Creating user name:	WinNT
#	Creation time:	15. 06. 2019 18:59

#	Modifying user name:	WinNT
#	Modification time:	15. 06. 2019 18:59

#	Program:	/corina/corina34_cracker 3.40 0067  02.08.2006

@<TRIPOS>MOLECULE
ASD01120241
  54   55    0    0    0
SMALL
NO_CHARGES


@<TRIPOS>ATOM
   1 C1            -0.0167     1.3791     0.0096 C.ar    
   2 C2             0.0021    -0.0041     0.0020 C.ar    
   3 C3            -1.1857    -0.7112     0.0100 C.ar    
   4 C4            -2.3919    -0.0365     0.0257 C.ar    
   5 C5            -2.4113     1.3460     0.0333 C.ar    
   6 C6            -1.2245     2.0540     0.0306 C.ar    
   7 S7            -3.9495     2.2052     0.0532 S.o2    
   8 N8            -4.3617     2.4358     1.6404 N.am    
   9 C9            -3.6007     3.2226     2.4268 C.2     
  10 N10           -3.9362     3.4102     3.7186 N.am    
  11 O11           -3.6957     3.4949    -0.4869 O.2     
  12 O12           -4.9146     1.3128    -0.4865 O.2     
  13 O13           -2.6116     3.7631     1.9709 O.2     
  14 C14           -1.9603     5.1798    15.8121 C.ar    
  15 C15           -0.7589     4.8120    16.3909 C.ar    
  16 C16            0.3256     5.6673    16.3345 C.ar    
  17 C17            0.2098     6.8898    15.7000 C.ar    
  18 C18           -0.9907     7.2580    15.1213 C.ar    
  19 C19           -2.0741     6.4016    15.1725 C.ar    
  20 S20           -1.1374     8.8166    14.3126 S.o2    
  21 N21           -0.7252     8.5860    12.7254 N.am    
  22 C22           -1.4862     7.7992    11.9390 C.2     
  23 N23           -1.1507     7.6116    10.6472 N.am    
  24 O24           -2.5196     9.1462    14.3245 O.2     
  25 O25           -0.1339     9.6539    14.8702 O.2     
  26 O26           -2.4753     7.2587    12.3949 O.2     
  27 C27           -3.7059     4.3089     5.9815 C.3     
  28 Cl28          -3.3225     4.1060    15.8820 Cl      
  29 Cl29           1.4746     2.2678     0.0002 Cl      
  30 C30           -3.1091     4.2655     4.5734 C.3     
  31 C31           -1.3810     6.7129     8.3843 C.3     
  32 C32           -2.2120     5.8536     7.5254 C.1     
  33 C33           -2.8749     5.1682     6.8404 C.1     
  34 C34           -1.9778     6.7563     9.7924 C.3     
  35 H35            0.9445    -0.5314    -0.0105 H       
  36 H36           -1.1712    -1.7911     0.0037 H       
  37 H37           -3.3197    -0.5894     0.0316 H       
  38 H38           -1.2398     3.1339     0.0365 H       
  39 H39           -5.1507     2.0046     2.0041 H       
  40 H40           -4.7253     2.9790     4.0823 H       
  41 H41           -0.6684     3.8570    16.8870 H       
  42 H42            1.2635     5.3805    16.7866 H       
  43 H43            1.0573     7.5579    15.6565 H       
  44 H44           -3.0118     6.6892    14.7204 H       
  45 H45            0.0638     9.0172    12.3617 H       
  46 H46           -0.3616     8.0428    10.2835 H       
  47 H47           -4.7178     4.7116     5.9350 H       
  48 H48           -3.7347     3.3009     6.3952 H       
  49 H49           -2.0973     3.8628     4.6199 H       
  50 H50           -3.0803     5.2735     4.1597 H       
  51 H51           -0.3692     6.3102     8.4308 H       
  52 H52           -1.3522     7.7209     7.9706 H       
  53 H53           -2.0066     5.7483    10.2061 H       
  54 H54           -2.9897     7.1590     9.7459 H       
@<TRIPOS>BOND
   1    1    2 ar
   2    1   29 1
   3    1    6 ar
   4    2    3 ar
   5    2   35 1
   6    3    4 ar
   7    3   36 1
   8    4    5 ar
   9    4   37 1
  10    5    6 ar
  11    5    7 1
  12    6   38 1
  13    7    8 am
  14    7   11 2
  15    7   12 2
  16    8    9 am
  17    8   39 1
  18    9   10 am
  19    9   13 2
  20   10   30 1
  21   10   40 1
  22   14   15 ar
  23   14   28 1
  24   14   19 ar
  25   15   16 ar
  26   15   41 1
  27   16   17 ar
  28   16   42 1
  29   17   18 ar
  30   17   43 1
  31   18   19 ar
  32   18   20 1
  33   19   44 1
  34   20   21 am
  35   20   24 2
  36   20   25 2
  37   21   22 am
  38   21   45 1
  39   22   23 am
  40   22   26 2
  41   23   34 1
  42   23   46 1
  43   27   30 1
  44   27   33 1
  45   27   47 1
  46   27   48 1
  47   30   49 1
  48   30   50 1
  49   31   32 1
  50   31   34 1
  51   31   51 1
  52   31   52 1
  53   32   33 3
  54   34   53 1
  55   34   54 1

#	End of record

