#	Name: ASD02039224
#	Creating user name:	WinNT
#	Creation time:	15. 06. 2019 20:17

#	Modifying user name:	WinNT
#	Modification time:	15. 06. 2019 20:17

#	Program:	/corina/corina34_cracker 3.40 0067  02.08.2006

@<TRIPOS>MOLECULE
ASD02039224
  46   50    0    0    0
SMALL
NO_CHARGES


@<TRIPOS>ATOM
   1 N1             0.0020     1.2626     0.3688 N.2     
   2 C2             0.0063    -0.0135     0.0887 C.2     
   3 N3             1.2922    -0.3754    -0.1079 N.2     
   4 C4             1.9959     0.7160     0.0672 C.2     
   5 O5             1.1350     1.6955     0.3604 O.3     
   6 C6             3.4937     0.8428    -0.0411 C.3     
   7 N7            -1.1049    -0.8433     0.0085 N.pl3   
   8 C8            -2.3915    -0.3042     0.1293 C.ar    
   9 C9            -2.6369     1.0037    -0.2681 C.ar    
  10 C10           -3.9059     1.5346    -0.1486 C.ar    
  11 C11           -4.9357     0.7618     0.3683 C.ar    
  12 C12           -4.6914    -0.5443     0.7654 C.ar    
  13 C13           -3.4239    -1.0788     0.6412 C.ar    
  14 C14           -4.1724     2.9539    -0.5793 C.3     
  15 C15            4.0885     2.2517     0.0047 C.3     
  16 C16            4.2545     1.3120     1.2007 C.3     
  17 C17            3.4489     1.6120     2.4384 C.ar    
  18 C18            3.6910     0.9131     3.5867 C.ar    
  19 C19            2.9495     1.1859     4.7338 C.ar    
  20 C20            1.9559     2.1829     4.6943 C.ar    
  21 C21            1.7267     2.8851     3.5057 C.ar    
  22 C22            2.4726     2.6002     2.3990 C.ar    
  23 N23            2.9484     0.6779     6.0065 N.pl3   
  24 N24            1.9737     1.3385     6.7615 N.2     
  25 C25            1.3683     2.2293     6.0292 C.2     
  26 O26           -6.1851     1.2856     0.4861 O.3     
  27 C27           -7.1974     0.4338     1.0264 C.3     
  28 F28           -7.3385    -0.6962     0.2138 F       
  29 F29           -6.8328     0.0371     2.3175 F       
  30 H30            3.9822     0.1110    -0.6844 H       
  31 H31           -0.9895    -1.7963    -0.1312 H       
  32 H32           -1.8353     1.6055    -0.6702 H       
  33 H33           -5.4935    -1.1451     1.1681 H       
  34 H34           -3.2339    -2.0961     0.9501 H       
  35 H35           -4.4637     2.9663    -1.6296 H       
  36 H36           -4.9767     3.3723     0.0258 H       
  37 H37           -3.2695     3.5497    -0.4457 H       
  38 H38            4.9685     2.4467    -0.6082 H       
  39 H39            3.3965     3.0869     0.1131 H       
  40 H40            5.2438     0.8887     1.3746 H       
  41 H41            4.4554     0.1504     3.6050 H       
  42 H42            0.9668     3.6515     3.4657 H       
  43 H43            2.2966     3.1419     1.4814 H       
  44 H44            3.5303    -0.0267     6.3317 H       
  45 H45            0.5733     2.8851     6.3523 H       
  46 H46           -8.1435     0.9735     1.0657 H       
@<TRIPOS>BOND
   1    1    2 2
   2    1    5 1
   3    2    3 1
   4    2    7 1
   5    3    4 2
   6    4    5 1
   7    4    6 1
   8    6   15 1
   9    6   16 1
  10    6   30 1
  11    7    8 1
  12    7   31 1
  13    8    9 ar
  14    8   13 ar
  15    9   10 ar
  16    9   32 1
  17   10   11 ar
  18   10   14 1
  19   11   12 ar
  20   11   26 1
  21   12   13 ar
  22   12   33 1
  23   13   34 1
  24   14   35 1
  25   14   36 1
  26   14   37 1
  27   15   16 1
  28   15   38 1
  29   15   39 1
  30   16   17 1
  31   16   40 1
  32   17   18 ar
  33   17   22 ar
  34   18   19 ar
  35   18   41 1
  36   19   20 ar
  37   19   23 1
  38   20   21 ar
  39   20   25 1
  40   21   22 ar
  41   21   42 1
  42   22   43 1
  43   23   24 1
  44   23   44 1
  45   24   25 2
  46   25   45 1
  47   26   27 1
  48   27   28 1
  49   27   29 1
  50   27   46 1

#	End of record

