#	Name: ASD04430046
#	Creating user name:	WinNT
#	Creation time:	15. 06. 2019 20:49

#	Modifying user name:	WinNT
#	Modification time:	15. 06. 2019 20:49

#	Program:	/corina/corina34_cracker 3.40 0067  02.08.2006

@<TRIPOS>MOLECULE
ASD04430046
  47   50    0    0    0
SMALL
NO_CHARGES


@<TRIPOS>ATOM
   1 N1             0.5088     0.7888     0.6839 N.am    
   2 C2             0.5726    -0.5495     0.4679 C.2     
   3 N3             1.6785    -1.1689     0.1750 N.2     
   4 C4             2.8471    -0.5187     0.0649 C.2     
   5 C5             2.8803     0.8699     0.2712 C.2     
   6 C6             1.6265     1.5478     0.5995 C.2     
   7 N7             4.1218    -0.8990    -0.2217 N.pl3   
   8 N8             4.9366     0.2399    -0.1938 N.2     
   9 C9             4.2131     1.2867     0.0959 C.2     
  10 O10            1.5894     2.7506     0.7896 O.2     
  11 C11           -0.6964    -1.3556     0.5728 C.3     
  12 C12           -0.4010    -2.8181     0.2343 C.3     
  13 C13            4.5467    -2.2063    -0.4970 C.ar    
  14 C14            5.6343    -2.7407     0.1779 C.ar    
  15 C15            6.0511    -4.0299    -0.0949 C.ar    
  16 C16            5.3867    -4.7896    -1.0398 C.ar    
  17 C17            4.3020    -4.2638    -1.7170 C.ar    
  18 C18            3.8740    -2.9745    -1.4452 C.ar    
  19 C19            0.4389    -3.4755     1.3574 C.3     
  20 C20           -1.7060    -3.6402     0.2072 C.3     
  21 C21           -1.3714    -5.0161     0.8094 C.3     
  22 C22            0.1254    -4.9821     1.1814 C.3     
  23 C23            6.3618    -1.9155     1.2079 C.3     
  24 O24            2.8074    -2.4562    -2.1098 O.3     
  25 C25            2.0981    -3.3359    -2.9845 C.3     
  26 H26           -0.3420     1.2037     0.8957 H       
  27 H27            4.5752     2.3002     0.1854 H       
  28 H28           -1.0860    -1.2893     1.5886 H       
  29 H29           -1.4350    -0.9629    -0.1261 H       
  30 H30            0.1153    -2.8904    -0.7230 H       
  31 H31            6.8981    -4.4449     0.4313 H       
  32 H32            5.7162    -5.7965    -1.2499 H       
  33 H33            3.7857    -4.8597    -2.4551 H       
  34 H34            1.5013    -3.2821     1.2089 H       
  35 H35            0.1147    -3.1255     2.3375 H       
  36 H36           -2.4709    -3.1464     0.8066 H       
  37 H37           -2.0529    -3.7564    -0.8195 H       
  38 H38           -1.9738    -5.1900     1.7010 H       
  39 H39           -1.5558    -5.8001     0.0749 H       
  40 H40            0.7279    -5.4058     0.3779 H       
  41 H41            0.2991    -5.5194     2.1137 H       
  42 H42            5.9344    -2.1043     2.1926 H       
  43 H43            7.4173    -2.1873     1.2118 H       
  44 H44            6.2598    -0.8580     0.9643 H       
  45 H45            2.7509    -3.6383    -3.8033 H       
  46 H46            1.7774    -4.2182    -2.4306 H       
  47 H47            1.2249    -2.8221    -3.3867 H       
@<TRIPOS>BOND
   1    1    2 1
   2    1    6 am
   3    1   26 1
   4    2    3 2
   5    2   11 1
   6    3    4 1
   7    4    5 2
   8    4    7 1
   9    5    6 1
  10    5    9 1
  11    6   10 2
  12    7    8 1
  13    7   13 1
  14    8    9 2
  15    9   27 1
  16   11   12 1
  17   11   28 1
  18   11   29 1
  19   12   20 1
  20   12   19 1
  21   12   30 1
  22   13   14 ar
  23   13   18 ar
  24   14   15 ar
  25   14   23 1
  26   15   16 ar
  27   15   31 1
  28   16   17 ar
  29   16   32 1
  30   17   18 ar
  31   17   33 1
  32   18   24 1
  33   19   22 1
  34   19   34 1
  35   19   35 1
  36   20   21 1
  37   20   36 1
  38   20   37 1
  39   21   22 1
  40   21   38 1
  41   21   39 1
  42   22   40 1
  43   22   41 1
  44   23   42 1
  45   23   43 1
  46   23   44 1
  47   24   25 1
  48   25   45 1
  49   25   46 1
  50   25   47 1

#	End of record

