#	Name: ASD03090871
#	Creating user name:	WinNT
#	Creation time:	15. 06. 2019 20:29

#	Modifying user name:	WinNT
#	Modification time:	15. 06. 2019 20:29

#	Program:	/corina/corina34_cracker 3.40 0067  02.08.2006

@<TRIPOS>MOLECULE
ASD03090871
  50   53    0    0    0
SMALL
NO_CHARGES


@<TRIPOS>ATOM
   1 N1            -0.0149     1.3421     0.1051 N.am    
   2 C2             0.0030    -0.0051     0.0721 C.2     
   3 O3            -1.0442    -0.6288     0.0750 O.2     
   4 N4             1.1687    -0.6570     0.0362 N.2     
   5 C5             1.2438     2.0918     0.1015 C.3     
   6 C6             1.6571     2.3877    -1.3415 C.3     
   7 O7             0.6968     3.2584    -1.9430 O.3     
   8 S8            -0.1729    -3.0447     0.0008 S.3     
   9 C9             1.1864    -1.9875     0.0036 C.2     
  10 N10            2.2793    -2.7909    -0.0347 N.pl3   
  11 C11            2.0560    -4.1338    -0.0639 C.2     
  12 C12            0.7906    -4.5309    -0.0521 C.2     
  13 C13            0.2795    -5.9484    -0.0786 C.3     
  14 O14            7.4851    -0.9543    -0.0528 O.3     
  15 C15            8.1209    -2.2099    -0.3569 C.3     
  16 O16            7.1778    -3.1928     0.1096 O.3     
  17 C17            5.9555    -2.5894     0.0355 C.ar    
  18 C18            6.1440    -1.2125    -0.0645 C.ar    
  19 C19            4.6733    -3.1114     0.0455 C.ar    
  20 C20            3.5781    -2.2627    -0.0443 C.ar    
  21 C21            3.7690    -0.8915    -0.1440 C.ar    
  22 C22            5.0485    -0.3694    -0.1545 C.ar    
  23 F23            8.3226    -2.3376    -1.7353 F       
  24 F24            9.3332    -2.3264     0.3315 F       
  25 C25           -1.2932     2.0571     0.1383 C.3     
  26 C26           -1.7139     2.2677     1.5700 C.ar    
  27 C27           -1.3221     3.4088     2.2448 C.ar    
  28 C28           -1.7079     3.6020     3.5580 C.ar    
  29 C29           -2.4859     2.6543     4.1964 C.ar    
  30 C30           -2.8784     1.5136     3.5214 C.ar    
  31 C31           -2.4962     1.3225     2.2067 C.ar    
  32 H32            1.1096     3.0296     0.6407 H       
  33 H33            2.0199     1.5009     0.5879 H       
  34 H34            2.6362     2.8667    -1.3481 H       
  35 H35            1.7049     1.4554    -1.9042 H       
  36 H36            0.8956     3.4890    -2.8609 H       
  37 H37            2.8708    -4.8420    -0.0951 H       
  38 H38           -0.8103    -5.9421    -0.0607 H       
  39 H39            0.6251    -6.4423    -0.9867 H       
  40 H40            0.6541    -6.4860     0.7924 H       
  41 H41            4.5250    -4.1784     0.1226 H       
  42 H42            2.9166    -0.2319    -0.2138 H       
  43 H43            5.1947     0.6979    -0.2316 H       
  44 H44           -1.1819     3.0234    -0.3536 H       
  45 H45           -2.0512     1.4704    -0.3806 H       
  46 H46           -0.7143     4.1492     1.7460 H       
  47 H47           -1.4013     4.4932     4.0854 H       
  48 H48           -2.7868     2.8048     5.2227 H       
  49 H49           -3.4859     0.7730     4.0202 H       
  50 H50           -2.8059     0.4330     1.6781 H       
@<TRIPOS>BOND
   1    1    2 am
   2    1    5 1
   3    1   25 1
   4    2    3 2
   5    2    4 1
   6    4    9 2
   7    5    6 1
   8    5   32 1
   9    5   33 1
  10    6    7 1
  11    6   34 1
  12    6   35 1
  13    7   36 1
  14    8    9 1
  15    8   12 1
  16    9   10 1
  17   10   11 1
  18   10   20 1
  19   11   12 2
  20   11   37 1
  21   12   13 1
  22   13   38 1
  23   13   39 1
  24   13   40 1
  25   14   15 1
  26   14   18 1
  27   15   16 1
  28   15   23 1
  29   15   24 1
  30   16   17 1
  31   17   18 ar
  32   17   19 ar
  33   18   22 ar
  34   19   20 ar
  35   19   41 1
  36   20   21 ar
  37   21   22 ar
  38   21   42 1
  39   22   43 1
  40   25   26 1
  41   25   44 1
  42   25   45 1
  43   26   27 ar
  44   26   31 ar
  45   27   28 ar
  46   27   46 1
  47   28   29 ar
  48   28   47 1
  49   29   30 ar
  50   29   48 1
  51   30   31 ar
  52   30   49 1
  53   31   50 1

#	End of record

