#	Name: ASD07300903
#	Creating user name:	WinNT
#	Creation time:	15. 06. 2019 21:10

#	Modifying user name:	WinNT
#	Modification time:	15. 06. 2019 21:10

#	Program:	/corina/corina34_cracker 3.40 0067  02.08.2006

@<TRIPOS>MOLECULE
ASD07300903
  49   53    0    0    0
SMALL
NO_CHARGES


@<TRIPOS>ATOM
   1 N1             0.1800     1.2016     0.5911 N.am    
   2 C2             0.1231    -0.1497     0.4810 C.2     
   3 N3             1.1715    -0.8887     0.2651 N.2     
   4 C4             2.3978    -0.3585     0.1341 C.2     
   5 C5             2.5559     1.0329     0.2326 C.2     
   6 C6             1.3647     1.8463     0.4762 C.2     
   7 N7             3.6341    -0.8745    -0.0896 N.pl3   
   8 N8             4.5516     0.1830    -0.1299 N.2     
   9 C9             3.9244     1.3112     0.0591 C.2     
  10 O10            1.4361     3.0588     0.5712 O.2     
  11 C11            3.9534    -2.2942    -0.2591 C.3     
  12 C12            4.6255    -2.5072    -1.6170 C.3     
  13 C13            4.9589    -3.9898    -1.7941 C.3     
  14 C14            5.9079    -4.4357    -0.6799 C.3     
  15 C15            5.2359    -4.2227     0.6781 C.3     
  16 C16            4.9024    -2.7401     0.8551 C.3     
  17 F17            6.2128    -5.7915    -0.8418 F       
  18 F18            7.0852    -3.6825    -0.7408 F       
  19 C19           -1.2170    -0.8257     0.6157 C.3     
  20 C20           -1.1239    -2.2954     1.0585 C.3     
  21 C21           -2.2542    -2.5867     0.0573 C.3     
  22 C22           -1.7818    -1.3449    -0.7170 C.3     
  23 C23           -0.7223    -1.6424    -1.7466 C.2     
  24 C24           -0.7192    -1.2511    -3.0434 C.2     
  25 C25            0.4836    -1.7863    -3.5588 C.2     
  26 N26            1.0579    -2.4148    -2.5741 N.2     
  27 O27            0.4058    -2.3414    -1.5584 O.3     
  28 C28            0.9985    -1.6557    -4.9691 C.3     
  29 H29           -0.6321     1.7079     0.7489 H       
  30 H30            4.3780     2.2911     0.0790 H       
  31 H31            3.0362    -2.8811    -0.2116 H       
  32 H32            3.9494    -2.1895    -2.4108 H       
  33 H33            5.5427    -1.9203    -1.6645 H       
  34 H34            4.0416    -4.5767    -1.7466 H       
  35 H35            5.4377    -4.1416    -2.7615 H       
  36 H36            4.3186    -4.8096     0.7255 H       
  37 H37            5.9120    -4.5404     1.4718 H       
  38 H38            5.8197    -2.1532     0.8076 H       
  39 H39            4.4237    -2.5883     1.8225 H       
  40 H40           -1.9305    -0.2395     1.1950 H       
  41 H41           -0.1777    -2.7704     0.7993 H       
  42 H42           -1.4090    -2.4571     2.0981 H       
  43 H43           -2.1221    -3.5195    -0.4909 H       
  44 H44           -3.2522    -2.4824     0.4830 H       
  45 H45           -2.5980    -0.7393    -1.1109 H       
  46 H46           -1.4632    -0.6659    -3.5632 H       
  47 H47            1.6851    -0.8112    -5.0285 H       
  48 H48            1.5214    -2.5695    -5.2511 H       
  49 H49            0.1615    -1.4918    -5.6478 H       
@<TRIPOS>BOND
   1    1    2 1
   2    1    6 am
   3    1   29 1
   4    2    3 2
   5    2   19 1
   6    3    4 1
   7    4    5 2
   8    4    7 1
   9    5    6 1
  10    5    9 1
  11    6   10 2
  12    7    8 1
  13    7   11 1
  14    8    9 2
  15    9   30 1
  16   11   12 1
  17   11   16 1
  18   11   31 1
  19   12   13 1
  20   12   32 1
  21   12   33 1
  22   13   14 1
  23   13   34 1
  24   13   35 1
  25   14   15 1
  26   14   17 1
  27   14   18 1
  28   15   16 1
  29   15   36 1
  30   15   37 1
  31   16   38 1
  32   16   39 1
  33   19   20 1
  34   19   22 1
  35   19   40 1
  36   20   21 1
  37   20   41 1
  38   20   42 1
  39   21   22 1
  40   21   43 1
  41   21   44 1
  42   22   23 1
  43   22   45 1
  44   23   24 2
  45   23   27 1
  46   24   25 1
  47   24   46 1
  48   25   26 2
  49   25   28 1
  50   26   27 1
  51   28   47 1
  52   28   48 1
  53   28   49 1

#	End of record

