#	Name: ASD03430212
#	Creating user name:	WinNT
#	Creation time:	15. 06. 2019 20:40

#	Modifying user name:	WinNT
#	Modification time:	15. 06. 2019 20:40

#	Program:	/corina/corina34_cracker 3.40 0067  02.08.2006

@<TRIPOS>MOLECULE
ASD03430212
  61   67    0    0    0
SMALL
NO_CHARGES


@<TRIPOS>ATOM
   1 C1            -0.0262     0.7842     1.5786 C.ar    
   2 C2            -0.0748    -0.5771     1.3750 C.ar    
   3 C3             1.0771    -1.3310     1.4582 C.ar    
   4 C4             2.2947    -0.7247     1.7564 C.ar    
   5 C5             2.3369     0.6509     1.9500 C.ar    
   6 C6             1.1798     1.4153     1.8599 C.ar    
   7 O7             3.2988    -1.6444     1.8239 O.3     
   8 C8             1.3601    -2.7972     1.2734 C.3     
   9 C9             2.8893    -2.8469     1.1453 C.3     
  10 C10           -0.0027    -4.5599     1.8704 C.ar    
  11 C11            0.8688    -3.6252     2.4239 C.ar    
  12 C12            0.6808    -3.3609     0.0588 C.2     
  13 N13           -0.0900    -4.3803     0.4882 N.am    
  14 O14            0.8017    -2.9749    -1.0846 O.2     
  15 C15            1.1126    -3.6113     3.7786 C.ar    
  16 C16            0.4909    -4.5311     4.6047 C.ar    
  17 C17           -0.3766    -5.4634     4.0663 C.ar    
  18 C18           -0.6246    -5.4814     2.7093 C.ar    
  19 C19           -0.9218    -5.2039    -0.3927 C.3     
  20 C20           -1.0988     1.8556     1.5730 C.3     
  21 C21           -0.3758     3.0359     2.2641 C.3     
  22 O22            1.0098     2.7599     1.9977 O.3     
  23 C23           -2.3080    -4.6174    -0.4674 C.ar    
  24 C24           -3.2874    -5.2341    -1.2482 C.ar    
  25 C25           -2.9689    -6.4641    -2.0036 C.2     
  26 O26           -1.8319    -6.8943    -2.0132 O.2     
  27 C27           -2.6136    -3.4734     0.2399 C.ar    
  28 C28           -3.8860    -2.9335     0.1723 C.ar    
  29 C29           -4.8595    -3.5364    -0.6040 C.ar    
  30 C30           -4.5687    -4.6844    -1.3120 C.ar    
  31 N31           -3.9390    -7.1086    -2.6819 N.am    
  32 C32           -3.6596    -8.3227    -3.3172 C.ar    
  33 C33           -4.6219    -9.3237    -3.3594 C.ar    
  34 C34           -4.3437   -10.5215    -3.9878 C.ar    
  35 C35           -2.4219    -8.5277    -3.9122 C.ar    
  36 C36           -2.1492    -9.7289    -4.5398 C.ar    
  37 C37           -3.1085   -10.7257    -4.5752 C.ar    
  38 Cl38          -0.6023    -9.9871    -5.2842 Cl      
  39 H39           -1.0168    -1.0552     1.1503 H       
  40 H40            3.2783     1.1306     2.1735 H       
  41 H41            3.1910    -2.8222     0.0982 H       
  42 H42            3.2910    -3.7288     1.6443 H       
  43 H43            1.7902    -2.8819     4.1972 H       
  44 H44            0.6830    -4.5209     5.6674 H       
  45 H45           -0.8620    -6.1812     4.7109 H       
  46 H46           -1.3032    -6.2129     2.2960 H       
  47 H47           -0.4828    -5.2269    -1.3901 H       
  48 H48           -0.9771    -6.2179     0.0034 H       
  49 H49           -1.3836     2.1164     0.5537 H       
  50 H50           -1.9679     1.5397     2.1500 H       
  51 H51           -0.6731     3.9852     1.8184 H       
  52 H52           -0.5708     3.0337     3.3365 H       
  53 H53           -1.8582    -2.9980     0.8480 H       
  54 H54           -4.1201    -2.0378     0.7283 H       
  55 H55           -5.8506    -3.1100    -0.6524 H       
  56 H56           -5.3296    -5.1541    -1.9176 H       
  57 H57           -4.8309    -6.7304    -2.7293 H       
  58 H58           -5.5867    -9.1655    -2.9006 H       
  59 H59           -5.0916   -11.2999    -4.0203 H       
  60 H60           -1.6733    -7.7497    -3.8850 H       
  61 H61           -2.8936   -11.6634    -5.0660 H       
@<TRIPOS>BOND
   1    1    2 ar
   2    1    6 ar
   3    1   20 1
   4    2    3 ar
   5    2   39 1
   6    3    4 ar
   7    3    8 1
   8    4    5 ar
   9    4    7 1
  10    5    6 ar
  11    5   40 1
  12    6   22 1
  13    7    9 1
  14    8    9 1
  15    8   11 1
  16    8   12 1
  17    9   41 1
  18    9   42 1
  19   10   11 ar
  20   10   13 1
  21   10   18 ar
  22   11   15 ar
  23   12   13 am
  24   12   14 2
  25   13   19 1
  26   15   16 ar
  27   15   43 1
  28   16   17 ar
  29   16   44 1
  30   17   18 ar
  31   17   45 1
  32   18   46 1
  33   19   23 1
  34   19   47 1
  35   19   48 1
  36   20   21 1
  37   20   49 1
  38   20   50 1
  39   21   22 1
  40   21   51 1
  41   21   52 1
  42   23   24 ar
  43   23   27 ar
  44   24   25 1
  45   24   30 ar
  46   25   26 2
  47   25   31 am
  48   27   28 ar
  49   27   53 1
  50   28   29 ar
  51   28   54 1
  52   29   30 ar
  53   29   55 1
  54   30   56 1
  55   31   32 1
  56   31   57 1
  57   32   33 ar
  58   32   35 ar
  59   33   34 ar
  60   33   58 1
  61   34   37 ar
  62   34   59 1
  63   35   36 ar
  64   35   60 1
  65   36   37 ar
  66   36   38 1
  67   37   61 1

#	End of record

