#	Name: ASD03910042
#	Creating user name:	WinNT
#	Creation time:	15. 06. 2019 20:47

#	Modifying user name:	WinNT
#	Modification time:	15. 06. 2019 20:47

#	Program:	/corina/corina34_cracker 3.40 0067  02.08.2006

@<TRIPOS>MOLECULE
ASD03910042
  64   65    0    0    0
SMALL
NO_CHARGES


@<TRIPOS>ATOM
   1 C1            -0.5022    -0.2641    -0.6300 C.ar    
   2 C2             0.5062     0.2178     0.1843 C.ar    
   3 C3             0.3025     1.3566     0.9417 C.ar    
   4 C4            -0.9097     2.0162     0.8874 C.ar    
   5 C5            -1.9245     1.5348     0.0706 C.ar    
   6 C6            -1.7146     0.3943    -0.6935 C.ar    
   7 N7            -3.1538     2.2007     0.0133 N.am    
   8 C8            -3.1969     3.5448     0.1031 C.2     
   9 O9            -2.1802     4.1714     0.3143 O.2     
  10 C10           -4.2842     5.7524     0.0843 C.ar    
  11 C11           -3.9888     6.5166    -1.0294 C.ar    
  12 C12           -3.7885     7.8775    -0.9014 C.ar    
  13 C13           -3.8838     8.4772     0.3459 C.ar    
  14 C14           -4.1804     7.7082     1.4619 C.ar    
  15 C15           -4.3798     6.3477     1.3286 C.ar    
  16 O16           -3.6867     9.8157     0.4745 O.3     
  17 C17           -3.9277    10.3862     1.7623 C.3     
  18 C18           -2.9849     9.7753     2.7668 C.2     
  19 C19           -0.2759    -1.5056    -1.4537 C.3     
  20 C20            1.4042     1.8783     1.8277 C.3     
  21 O21           -2.1852     8.9342     2.4145 O.2     
  22 N22           -3.0302    10.1637     4.0566 N.am    
  23 C23           -4.5084     4.2691    -0.0591 C.3     
  24 C24           -3.6988    11.8977     1.7015 C.3     
  25 C25           -5.3720    10.1056     2.1822 C.3     
  26 C26           -2.0432     9.6522     5.0107 C.3     
  27 C27           -2.4714     8.2910     5.4954 C.2     
  28 O28           -3.4960     7.7987     5.0858 O.2     
  29 O29           -1.7146     7.6256     6.3821 O.3     
  30 C30           -1.9410    10.6084     6.2007 C.3     
  31 C31           -1.4282    11.9446     5.7288 C.2     
  32 O32           -1.1677    12.9156     6.6182 O.3     
  33 O33           -1.2517    12.1419     4.5499 O.2     
  34 C34           -2.1886     6.3198     6.8045 C.3     
  35 H35            1.4548    -0.2966     0.2290 H       
  36 H36           -1.0684     2.9052     1.4797 H       
  37 H37           -2.5017     0.0176    -1.3299 H       
  38 H38           -3.9749     1.6950    -0.0910 H       
  39 H39           -3.9143     6.0492    -2.0002 H       
  40 H40           -3.5574     8.4739    -1.7716 H       
  41 H41           -4.2548     8.1727     2.4341 H       
  42 H42           -4.6107     5.7486     2.1971 H       
  43 H43           -0.5708    -2.3827    -0.8776 H       
  44 H44           -0.8728    -1.4514    -2.3642 H       
  45 H45            0.7796    -1.5808    -1.7152 H       
  46 H46            2.0193     2.5819     1.2666 H       
  47 H47            0.9687     2.3837     2.6897 H       
  48 H48            2.0216     1.0468     2.1677 H       
  49 H49           -3.7164    10.7818     4.3531 H       
  50 H50           -4.9207     4.0577    -1.0457 H       
  51 H51           -5.2070     3.9315     0.7065 H       
  52 H52           -4.4369    12.3506     1.0396 H       
  53 H53           -3.7988    12.3209     2.7010 H       
  54 H54           -2.6974    12.0985     1.3205 H       
  55 H55           -5.5724     9.0371     2.1030 H       
  56 H56           -5.5197    10.4275     3.2131 H       
  57 H57           -6.0528    10.6524     1.5298 H       
  58 H58           -1.0718     9.5749     4.5223 H       
  59 H59           -2.9258    10.7354     6.6504 H       
  60 H60           -1.2544    10.1962     6.9401 H       
  61 H61           -0.8405    13.7555     6.2679 H       
  62 H62           -3.1672     6.4227     7.2736 H       
  63 H63           -2.2686     5.6642     5.9374 H       
  64 H64           -1.4860     5.8921     7.5198 H       
@<TRIPOS>BOND
   1    1    2 ar
   2    1   19 1
   3    1    6 ar
   4    2    3 ar
   5    2   35 1
   6    3    4 ar
   7    3   20 1
   8    4    5 ar
   9    4   36 1
  10    5    6 ar
  11    5    7 1
  12    6   37 1
  13    7    8 am
  14    7   38 1
  15    8    9 2
  16    8   23 1
  17   10   11 ar
  18   10   15 ar
  19   10   23 1
  20   11   12 ar
  21   11   39 1
  22   12   13 ar
  23   12   40 1
  24   13   14 ar
  25   13   16 1
  26   14   15 ar
  27   14   41 1
  28   15   42 1
  29   16   17 1
  30   17   18 1
  31   17   24 1
  32   17   25 1
  33   18   21 2
  34   18   22 am
  35   19   43 1
  36   19   44 1
  37   19   45 1
  38   20   46 1
  39   20   47 1
  40   20   48 1
  41   22   26 1
  42   22   49 1
  43   23   50 1
  44   23   51 1
  45   24   52 1
  46   24   53 1
  47   24   54 1
  48   25   55 1
  49   25   56 1
  50   25   57 1
  51   26   27 1
  52   26   30 1
  53   26   58 1
  54   27   28 2
  55   27   29 1
  56   29   34 1
  57   30   31 1
  58   30   59 1
  59   30   60 1
  60   31   32 1
  61   31   33 2
  62   32   61 1
  63   34   62 1
  64   34   63 1
  65   34   64 1

#	End of record

