#	Name: ASD03091234
#	Creating user name:	WinNT
#	Creation time:	15. 06. 2019 20:30

#	Modifying user name:	WinNT
#	Modification time:	15. 06. 2019 20:30

#	Program:	/corina/corina34_cracker 3.40 0067  02.08.2006

@<TRIPOS>MOLECULE
ASD03091234
  51   55    0    0    0
SMALL
NO_CHARGES


@<TRIPOS>ATOM
   1 N1             0.1195     1.0909     0.1177 N.2     
   2 C2             0.3373    -0.1989     0.1210 C.2     
   3 N3             1.5917    -0.7448     0.0693 N.am    
   4 C4             2.6836     0.0528     0.0112 C.2     
   5 C5             2.4625     1.5065     0.0058 C.ar    
   6 C6             3.5216     2.4096    -0.0524 C.ar    
   7 C7             3.2557     3.7685    -0.0552 C.ar    
   8 C8             1.9407     4.2309     0.0002 C.ar    
   9 C9             0.8927     3.3580     0.0580 C.ar    
  10 C10            1.1318     1.9802     0.0618 C.ar    
  11 O11            3.8062    -0.4156    -0.0344 O.2     
  12 C12            1.7531    -2.2008     0.0775 C.3     
  13 C13           -0.8245    -1.1089     0.1840 C.ar    
  14 C14           -1.0207    -2.0678    -0.8146 C.ar    
  15 C15           -2.1113    -2.9164    -0.7475 C.ar    
  16 C16           -3.0047    -2.8163     0.3044 C.ar    
  17 C17           -2.8145    -1.8688     1.2949 C.ar    
  18 C18           -1.7288    -1.0196     1.2439 C.ar    
  19 F19           -0.1484    -2.1649    -1.8417 F       
  20 Cl20          -2.3596    -4.1082    -1.9851 Cl      
  21 N21            6.8275     5.8748    -1.1224 N.3     
  22 C22            6.7764     4.9532     0.0228 C.3     
  23 C23            5.6063     3.9914    -0.1134 C.3     
  24 N24            4.3114     4.6826    -0.1133 N.3     
  25 C25            4.1893     5.5539    -1.2905 C.3     
  26 C26            4.6222     6.9718    -0.9486 C.3     
  27 C27            6.1222     7.1224    -0.7952 C.3     
  28 C28            6.4375     5.3265    -2.4036 C.3     
  29 C29            4.9667     4.9452    -2.4431 C.3     
  30 H30            4.5403     2.0533    -0.0945 H       
  31 H31            1.7492     5.2937    -0.0024 H       
  32 H32           -0.1199     3.7311     0.1008 H       
  33 H33            1.7076    -2.5771    -0.9445 H       
  34 H34            2.7174    -2.4571     0.5164 H       
  35 H35            0.9545    -2.6517     0.6666 H       
  36 H36           -3.8549    -3.4806     0.3525 H       
  37 H37           -3.5161    -1.7968     2.1127 H       
  38 H38           -1.5807    -0.2838     2.0206 H       
  39 H39            7.7052     4.3845     0.0678 H       
  40 H40            6.6634     5.5283     0.9418 H       
  41 H41            5.7110     3.4380    -1.0465 H       
  42 H42            5.6302     3.2865     0.7176 H       
  43 H43            3.1394     5.5815    -1.5820 H       
  44 H44            4.2828     7.6410    -1.7392 H       
  45 H45            4.1440     7.2676    -0.0148 H       
  46 H46            6.3486     7.3997     0.2343 H       
  47 H47            6.4703     7.9128    -1.4602 H       
  48 H48            6.6315     6.0675    -3.1791 H       
  49 H49            7.0381     4.4397    -2.6062 H       
  50 H50            4.8807     3.8597    -2.3944 H       
  51 H51            4.5362     5.2913    -3.3828 H       
@<TRIPOS>BOND
   1    1    2 2
   2    1   10 1
   3    2    3 1
   4    2   13 1
   5    3    4 am
   6    3   12 1
   7    4    5 1
   8    4   11 2
   9    5    6 ar
  10    5   10 ar
  11    6    7 ar
  12    6   30 1
  13    7    8 ar
  14    7   24 1
  15    8    9 ar
  16    8   31 1
  17    9   10 ar
  18    9   32 1
  19   12   33 1
  20   12   34 1
  21   12   35 1
  22   13   14 ar
  23   13   18 ar
  24   14   15 ar
  25   14   19 1
  26   15   16 ar
  27   15   20 1
  28   16   17 ar
  29   16   36 1
  30   17   18 ar
  31   17   37 1
  32   18   38 1
  33   21   22 1
  34   21   27 1
  35   21   28 1
  36   22   23 1
  37   22   39 1
  38   22   40 1
  39   23   24 1
  40   23   41 1
  41   23   42 1
  42   24   25 1
  43   25   26 1
  44   25   29 1
  45   25   43 1
  46   26   27 1
  47   26   44 1
  48   26   45 1
  49   27   46 1
  50   27   47 1
  51   28   29 1
  52   28   48 1
  53   28   49 1
  54   29   50 1
  55   29   51 1

#	End of record

