#	Name: ASD01830033
#	Creating user name:	WinNT
#	Creation time:	15. 06. 2019 19:36

#	Modifying user name:	WinNT
#	Modification time:	15. 06. 2019 19:36

#	Program:	/corina/corina34_cracker 3.40 0067  02.08.2006

@<TRIPOS>MOLECULE
ASD01830033
  78   80    0    0    0
SMALL
NO_CHARGES


@<TRIPOS>ATOM
   1 Cl1            0.0000     0.0000     0.0000 Cl      
   2 H2             0.0000     1.3700     0.0000 H       
   3 Cl3            5.0000     6.3700     5.0000 Cl      
   4 H4             5.0000     7.7400     5.0000 H       
   5 C5            12.2385    20.3542    10.9468 C.3     
   6 C6            12.2592    18.8244    10.9384 C.3     
   7 H7            12.7573    18.4654    10.0378 H       
   8 C8            10.8165    18.2795    10.9931 C.3     
   9 C9            10.9453    17.0418    11.9197 C.3     
  10 C10           12.0121    17.5210    12.9354 C.3     
  11 N11           12.9637    18.3257    12.1338 N.3     
  12 C12           13.5117    19.4365    12.9236 C.3     
  13 C13           14.0048    18.9154    14.2488 C.2     
  14 S14           13.0517    18.7816    15.7247 S.3     
  15 C15           14.4491    18.1260    16.5718 C.2     
  16 N16           14.4699    17.7417    17.9056 N.am    
  17 C17           15.6021    17.2513    18.4480 C.2     
  18 O18           16.6051    17.1455    17.7692 O.2     
  19 C19           15.6242    16.8423    19.8677 C.ar    
  20 C20           16.7970    16.3403    20.4306 C.ar    
  21 N21           16.8163    15.9749    21.6993 N.ar    
  22 C22           15.7191    16.0856    22.4386 C.ar    
  23 C23           14.5425    16.5888    21.8735 C.ar    
  24 N24           14.5245    16.9583    20.6121 N.ar    
  25 N25           15.7393    15.7026    23.7685 N.3     
  26 C26           14.7040    14.6962    24.0424 C.3     
  27 C27           14.7067    14.3588    25.5353 C.3     
  28 N28           16.0350    13.8618    25.9201 N.3     
  29 C29           16.0565    13.4553    27.3316 C.3     
  30 C30           15.8566    14.6851    28.2196 C.3     
  31 C31           15.8786    14.2681    29.6676 C.2     
  32 O32           15.7213    15.1872    30.6332 O.3     
  33 O33           16.0377    13.1065    29.9594 O.2     
  34 C34           17.0704    14.8682    25.6461 C.3     
  35 H35           16.8632    15.7695    26.2230 H       
  36 C36           18.4398    14.3124    26.0418 C.3     
  37 C37           17.0677    15.2056    24.1533 C.3     
  38 N38           15.4556    18.0568    15.7572 N.2     
  39 C39           15.2481    18.4664    14.5069 C.2     
  40 C40           16.3084    18.4343    13.4767 C.2     
  41 C41           17.6192    18.6522    13.7019 C.2     
  42 C42           18.4188    18.5686    12.5792 C.2     
  43 C43           17.7736    18.2856    11.4451 C.2     
  44 S44           16.0552    18.0986    11.7688 S.3     
  45 C45           19.9098    18.7816    12.6301 C.3     
  46 F46           20.5477    17.5593    12.8675 F       
  47 F47           20.3478    19.3070    11.4098 F       
  48 F48           20.2181    19.6763    13.6605 F       
  49 H49           13.2611    20.7315    10.9391 H       
  50 H50           11.7113    20.7153    10.0638 H       
  51 H51           11.7283    20.7057    11.8436 H       
  52 H52           10.1420    19.0174    11.4274 H       
  53 H53           10.4782    17.9839    10.0000 H       
  54 H54           10.0000    16.8272    12.4182 H       
  55 H55           11.2978    16.1729    11.3638 H       
  56 H56           11.5509    18.1355    13.7086 H       
  57 H57           12.5216    16.6671    13.3819 H       
  58 H58           14.3399    19.8935    12.3820 H       
  59 H59           12.7334    20.1807    13.0927 H       
  60 H60           13.6697    17.8262    18.4472 H       
  61 H61           17.6893    16.2500    19.8288 H       
  62 H62           13.6500    16.6781    22.4750 H       
  63 H63           13.7283    15.0923    23.7609 H       
  64 H64           14.9112    13.7949    23.4655 H       
  65 H65           14.4726    15.2543    26.1110 H       
  66 H66           13.9591    13.5914    25.7360 H       
  67 H67           15.2549    12.7400    27.5159 H       
  68 H68           17.0162    12.9929    27.5620 H       
  69 H69           16.6581    15.4005    28.0353 H       
  70 H70           14.8968    15.1476    27.9892 H       
  71 H71           15.7427    14.8718    31.5471 H       
  72 H72           18.6471    13.4115    25.4642 H       
  73 H73           19.2075    15.0590    25.8385 H       
  74 H74           18.4406    14.0706    27.1047 H       
  75 H75           17.3017    14.3101    23.5776 H       
  76 H76           17.8152    15.9730    23.9526 H       
  77 H77           18.0129    18.8748    14.6826 H       
  78 H78           18.2378    18.1831    10.4753 H       
@<TRIPOS>BOND
   1    1    2 1
   2    3    4 1
   3    5    6 1
   4    5   49 1
   5    5   50 1
   6    5   51 1
   7    6    7 1
   8    6   11 1
   9    6    8 1
  10    8    9 1
  11    8   52 1
  12    8   53 1
  13    9   10 1
  14    9   54 1
  15    9   55 1
  16   10   11 1
  17   10   56 1
  18   10   57 1
  19   11   12 1
  20   12   13 1
  21   12   58 1
  22   12   59 1
  23   13   39 2
  24   13   14 1
  25   14   15 1
  26   15   16 1
  27   15   38 2
  28   16   17 am
  29   16   60 1
  30   17   18 2
  31   17   19 1
  32   19   24 ar
  33   19   20 ar
  34   20   21 ar
  35   20   61 1
  36   21   22 ar
  37   22   23 ar
  38   22   25 1
  39   23   24 ar
  40   23   62 1
  41   25   37 1
  42   25   26 1
  43   26   27 1
  44   26   63 1
  45   26   64 1
  46   27   28 1
  47   27   65 1
  48   27   66 1
  49   28   29 1
  50   28   34 1
  51   29   30 1
  52   29   67 1
  53   29   68 1
  54   30   31 1
  55   30   69 1
  56   30   70 1
  57   31   32 1
  58   31   33 2
  59   32   71 1
  60   34   35 1
  61   34   36 1
  62   34   37 1
  63   36   72 1
  64   36   73 1
  65   36   74 1
  66   37   75 1
  67   37   76 1
  68   38   39 1
  69   39   40 1
  70   40   44 1
  71   40   41 2
  72   41   42 1
  73   41   77 1
  74   42   43 2
  75   42   45 1
  76   43   44 1
  77   43   78 1
  78   45   46 1
  79   45   47 1
  80   45   48 1

#	End of record

