#	Name: ASD01231303
#	Creating user name:	WinNT
#	Creation time:	15. 06. 2019 19:15

#	Modifying user name:	WinNT
#	Modification time:	15. 06. 2019 19:15

#	Program:	/corina/corina34_cracker 3.40 0067  02.08.2006

@<TRIPOS>MOLECULE
ASD01231303
  52   54    0    0    0
SMALL
NO_CHARGES


@<TRIPOS>ATOM
   1 C1            -3.2258     1.4903     1.7058 C.3     
   2 C2            -2.8506     0.0082     1.7657 C.3     
   3 C3            -4.1239    -0.8398     1.7881 C.3     
   4 S4            -1.8615    -0.4245     0.3079 S.o2    
   5 O5            -2.6579    -0.3742    -0.8679 O.2     
   6 O6            -0.5916     0.2110     0.3603 O.2     
   7 N7            -1.5213    -2.0335     0.5022 N.am    
   8 C8            -1.6360    -2.9930     2.7829 C.3     
   9 C9            -0.7248    -2.4807     1.6475 C.3     
  10 C10            0.0954    -3.7378     1.2880 C.3     
  11 C11            0.1169    -4.5714     2.5515 C.ar    
  12 C12            0.9418    -5.6203     2.9187 C.ar    
  13 C13            0.7726    -6.2431     4.1455 C.ar    
  14 C14           -0.2269    -5.8117     5.0062 C.ar    
  15 C15           -1.0474    -4.7653     4.6372 C.ar    
  16 C16           -0.8782    -4.1434     3.4108 C.ar    
  17 O17            1.5828    -7.2734     4.5041 O.3     
  18 C18            2.5866    -7.6204     3.6566 C.ar    
  19 C19            3.6706    -6.7740     3.4818 C.ar    
  20 C20            4.6941    -7.1315     2.6154 C.ar    
  21 C21            4.6292    -8.3364     1.9259 C.ar    
  22 C22            3.5473    -9.1767     2.1025 C.ar    
  23 C23            2.5301    -8.8251     2.9696 C.ar    
  24 S24            6.9355    -6.1474     3.6223 S.o2    
  25 O25            7.8971    -5.2528     3.0800 O.2     
  26 O26            6.1968    -5.8102     4.7884 O.2     
  27 N27            5.7876    -6.2813     2.4362 N.am    
  28 C28            7.6307    -7.8164     3.7697 C.3     
  29 H29           -3.8201     1.7503     2.5817 H       
  30 H30           -2.3187     2.0944     1.6898 H       
  31 H31           -3.8060     1.6820     0.8031 H       
  32 H32           -2.2704    -0.1835     2.6683 H       
  33 H33           -4.6740    -0.6449     2.7087 H       
  34 H34           -4.7467    -0.5828     0.9313 H       
  35 H35           -3.8580    -1.8958     1.7403 H       
  36 H36           -1.8494    -2.6799    -0.1424 H       
  37 H37           -1.8043    -2.2054     3.5174 H       
  38 H38           -2.5856    -3.3422     2.3774 H       
  39 H39           -0.0738    -1.6822     2.0036 H       
  40 H40           -0.3888    -4.2871     0.4807 H       
  41 H41            1.1094    -3.4587     1.0017 H       
  42 H42            1.7192    -5.9546     2.2476 H       
  43 H43           -0.3626    -6.2943     5.9628 H       
  44 H44           -1.8253    -4.4301     5.3072 H       
  45 H45            3.7183    -5.8380     4.0186 H       
  46 H46            5.4251    -8.6157     1.2513 H       
  47 H47            3.4983   -10.1123     1.5652 H       
  48 H48            1.6880    -9.4867     3.1094 H       
  49 H49            5.8747    -5.7692     1.6170 H       
  50 H50            8.4637    -7.8023     4.4727 H       
  51 H51            6.8621    -8.4996     4.1310 H       
  52 H52            7.9842    -8.1503     2.7942 H       
@<TRIPOS>BOND
   1    1    2 1
   2    1   29 1
   3    1   30 1
   4    1   31 1
   5    2    3 1
   6    2    4 1
   7    2   32 1
   8    3   33 1
   9    3   34 1
  10    3   35 1
  11    4    5 2
  12    4    6 2
  13    4    7 am
  14    7    9 1
  15    7   36 1
  16    8    9 1
  17    8   16 1
  18    8   37 1
  19    8   38 1
  20    9   10 1
  21    9   39 1
  22   10   11 1
  23   10   40 1
  24   10   41 1
  25   11   12 ar
  26   11   16 ar
  27   12   13 ar
  28   12   42 1
  29   13   14 ar
  30   13   17 1
  31   14   15 ar
  32   14   43 1
  33   15   16 ar
  34   15   44 1
  35   17   18 1
  36   18   19 ar
  37   18   23 ar
  38   19   20 ar
  39   19   45 1
  40   20   21 ar
  41   20   27 1
  42   21   22 ar
  43   21   46 1
  44   22   23 ar
  45   22   47 1
  46   23   48 1
  47   24   25 2
  48   24   26 2
  49   24   27 am
  50   24   28 1
  51   27   49 1
  52   28   50 1
  53   28   51 1
  54   28   52 1

#	End of record

