#	Name: ASD05143001
#	Creating user name:	WinNT
#	Creation time:	15. 06. 2019 20:57

#	Modifying user name:	WinNT
#	Modification time:	15. 06. 2019 20:57

#	Program:	/corina/corina34_cracker 3.40 0067  02.08.2006

@<TRIPOS>MOLECULE
ASD05143001
 109  113    0    0    0
SMALL
NO_CHARGES


@<TRIPOS>ATOM
   1 C1             0.7064     1.2614    -0.0614 C.2     
   2 C2             0.7516     0.0541    -0.6564 C.2     
   3 N3             1.9465    -0.0701    -1.2529 N.2     
   4 C4             2.6435     1.0144    -1.0501 C.2     
   5 N5             1.9064     1.8710    -0.3108 N.pl3   
   6 C6            -0.3478    -0.9767    -0.6527 C.3     
   7 C7            -0.6918    -1.3606    -2.0933 C.3     
   8 N8            -1.2581    -0.1892    -2.7976 N.am    
   9 C9            -1.7183    -2.4639    -2.0913 C.2     
  10 O10           -2.2913    -2.7814    -3.1120 O.2     
  11 N11           -1.9885    -3.1009    -0.9064 N.am    
  12 C12           -2.4124     0.3157    -2.2737 C.2     
  13 C13           -3.0541     1.5066    -2.9374 C.3     
  14 O14           -2.9139    -0.1862    -1.2901 O.2     
  15 N15           -3.5349     1.1242    -4.2673 N.am    
  16 C16           -4.2318     1.9903    -2.0888 C.3     
  17 S17           -5.6654     0.9166    -2.3765 S.3     
  18 S18           -6.0384     0.1373    -0.5175 S.3     
  19 C19           -7.0119    -1.3484    -0.8857 C.3     
  20 C20           -6.3766    -2.5583    -0.1977 C.3     
  21 N21           -5.1906    -2.9784    -0.9758 N.am    
  22 C22           -7.3716    -3.6888    -0.1429 C.2     
  23 N23           -8.5420    -3.5255     0.5051 N.am    
  24 O24           -7.1191    -4.7455    -0.6818 O.2     
  25 C25           -9.5093    -4.6245     0.5584 C.3     
  26 C26          -10.3606    -4.6051    -0.6849 C.2     
  27 C27          -10.4016    -4.4592     1.7902 C.3     
  28 N28          -11.3256    -5.5305    -0.8554 N.am    
  29 O29          -10.1775    -3.7568    -1.5321 O.2     
  30 C30           -4.2577    -3.7013    -0.2909 C.2     
  31 C31           -5.0279    -2.6395    -2.3917 C.3     
  32 C32           -3.0202    -4.1648    -1.0153 C.3     
  33 C33           -3.3487    -4.4155    -2.4884 C.3     
  34 O34           -4.4219    -3.9666     0.8811 O.2     
  35 C35           -2.1942    -5.1261    -3.1466 C.ar    
  36 C36           -1.7901    -6.3643    -2.6834 C.ar    
  37 C37           -0.7311    -7.0162    -3.2871 C.ar    
  38 C38           -0.0765    -6.4301    -4.3543 C.ar    
  39 C39           -0.4813    -5.1924    -4.8182 C.ar    
  40 C40           -1.5430    -4.5425    -4.2172 C.ar    
  41 C41           -5.5721    -3.7796    -3.2548 C.3     
  42 C42           -4.6644    -3.9769    -4.4706 C.3     
  43 C43           -5.2967    -4.9978    -5.4188 C.3     
  44 N44           -4.3744    -5.2756    -6.5227 N.pl3   
  45 C45           -4.6832    -6.2430    -7.4495 C.2     
  46 N46           -3.7730    -6.5762    -8.4246 N.pl3   
  47 N47           -5.8387    -6.8442    -7.4037 N.2     
  48 C48           -9.5677    -4.6012     3.0373 C.2     
  49 C49           -9.3905    -5.7210     3.7562 C.2     
  50 N50           -8.5691    -5.4668     4.8206 N.pl3   
  51 C51           -8.1880    -4.1438     4.8123 C.ar    
  52 C52           -8.7916    -3.5451     3.6916 C.ar    
  53 C53           -7.3794    -3.3747     5.6431 C.ar    
  54 C54           -7.1848    -2.0400     5.3638 C.ar    
  55 C55           -7.7878    -1.4523     4.2600 C.ar    
  56 C56           -8.5797    -2.1906     3.4266 C.ar    
  57 O57           -1.6332     1.7606    -5.2163 O.2     
  58 C58           -2.7252     1.2469    -5.3377 C.2     
  59 C59           -3.1765     0.7459    -6.6854 C.3     
  60 H60           -0.1196     1.6716     0.5006 H       
  61 H61            3.6442     1.1965    -1.4131 H       
  62 H62            2.1765     2.7536    -0.0127 H       
  63 H63           -0.0143    -1.8615    -0.1106 H       
  64 H64           -1.2313    -0.5638    -0.1659 H       
  65 H65            0.2089    -1.6963    -2.6074 H       
  66 H66           -0.8357     0.1955    -3.5815 H       
  67 H67           -1.5460    -2.8769    -0.0728 H       
  68 H68           -2.3214     2.3080    -3.0325 H       
  69 H69           -4.4361     0.7827    -4.3775 H       
  70 H70           -3.9581     1.9562    -1.0343 H       
  71 H71           -4.4832     3.0140    -2.3661 H       
  72 H72           -8.0301    -1.2156    -0.5198 H       
  73 H73           -7.0316    -1.5121    -1.9631 H       
  74 H74           -6.0729    -2.2862     0.8132 H       
  75 H75           -8.7440    -2.6803     0.9362 H       
  76 H76           -8.9774    -5.5740     0.6198 H       
  77 H77          -10.8651    -3.4728     1.7734 H       
  78 H78          -11.1771    -5.2251     1.7825 H       
  79 H79          -11.4721    -6.2089    -0.1778 H       
  80 H80          -11.8736    -5.5180    -1.6557 H       
  81 H81           -5.5765    -1.7237    -2.6115 H       
  82 H82           -3.9704    -2.4910    -2.6106 H       
  83 H83           -2.6502    -5.0832    -0.5595 H       
  84 H84           -4.2443    -5.0325    -2.5611 H       
  85 H85           -3.5221    -3.4630    -2.9892 H       
  86 H86           -2.3014    -6.8221    -1.8495 H       
  87 H87           -0.4149    -7.9832    -2.9247 H       
  88 H88            0.7513    -6.9391    -4.8255 H       
  89 H89            0.0303    -4.7344    -5.6518 H       
  90 H90           -1.8593    -3.5755    -4.5796 H       
  91 H91           -5.5990    -4.6982    -2.6686 H       
  92 H92           -6.5795    -3.5327    -3.5898 H       
  93 H93           -4.5409    -3.0266    -4.9899 H       
  94 H94           -3.6908    -4.3406    -4.1420 H       
  95 H95           -5.5013    -5.9203    -4.8754 H       
  96 H96           -6.2286    -4.5959    -5.8163 H       
  97 H97           -3.5460    -4.7769    -6.5997 H       
  98 H98           -2.9435    -6.0797    -8.5038 H       
  99 H99           -3.9604    -7.3079    -9.0332 H       
 100 H100          -6.0566    -7.5267    -8.0576 H       
 101 H101          -9.8315    -6.6802     3.5285 H       
 102 H102          -8.2961    -6.1212     5.4825 H       
 103 H103          -6.9062    -3.8226     6.5044 H       
 104 H104          -6.5570    -1.4446     6.0101 H       
 105 H105          -7.6252    -0.4044     4.0553 H       
 106 H106          -9.0456    -1.7267     2.5698 H       
 107 H107          -4.1320     1.2035    -6.9417 H       
 108 H108          -2.4338     1.0095    -7.4384 H       
 109 H109          -3.2902    -0.3376    -6.6508 H       
@<TRIPOS>BOND
   1    1    2 2
   2    1    5 1
   3    1   60 1
   4    2    3 1
   5    2    6 1
   6    3    4 2
   7    4    5 1
   8    4   61 1
   9    5   62 1
  10    6    7 1
  11    6   63 1
  12    6   64 1
  13    7    8 1
  14    7    9 1
  15    7   65 1
  16    8   12 am
  17    8   66 1
  18    9   10 2
  19    9   11 am
  20   11   32 1
  21   11   67 1
  22   12   13 1
  23   12   14 2
  24   13   15 1
  25   13   16 1
  26   13   68 1
  27   15   58 am
  28   15   69 1
  29   16   17 1
  30   16   70 1
  31   16   71 1
  32   17   18 1
  33   18   19 1
  34   19   20 1
  35   19   72 1
  36   19   73 1
  37   20   21 1
  38   20   22 1
  39   20   74 1
  40   21   30 am
  41   21   31 1
  42   22   23 am
  43   22   24 2
  44   23   25 1
  45   23   75 1
  46   25   26 1
  47   25   27 1
  48   25   76 1
  49   26   28 am
  50   26   29 2
  51   27   48 1
  52   27   77 1
  53   27   78 1
  54   28   79 1
  55   28   80 1
  56   30   32 1
  57   30   34 2
  58   31   41 1
  59   31   81 1
  60   31   82 1
  61   32   33 1
  62   32   83 1
  63   33   35 1
  64   33   84 1
  65   33   85 1
  66   35   36 ar
  67   35   40 ar
  68   36   37 ar
  69   36   86 1
  70   37   38 ar
  71   37   87 1
  72   38   39 ar
  73   38   88 1
  74   39   40 ar
  75   39   89 1
  76   40   90 1
  77   41   42 1
  78   41   91 1
  79   41   92 1
  80   42   43 1
  81   42   93 1
  82   42   94 1
  83   43   44 1
  84   43   95 1
  85   43   96 1
  86   44   45 1
  87   44   97 1
  88   45   46 1
  89   45   47 2
  90   46   98 1
  91   46   99 1
  92   47  100 1
  93   48   49 2
  94   48   52 1
  95   49   50 1
  96   49  101 1
  97   50   51 1
  98   50  102 1
  99   51   52 ar
 100   51   53 ar
 101   52   56 ar
 102   53   54 ar
 103   53  103 1
 104   54   55 ar
 105   54  104 1
 106   55   56 ar
 107   55  105 1
 108   56  106 1
 109   57   58 2
 110   58   59 1
 111   59  107 1
 112   59  108 1
 113   59  109 1

#	End of record

