#	Name: ASD01916042
#	Creating user name:	WinNT
#	Creation time:	15. 06. 2019 20:06

#	Modifying user name:	WinNT
#	Modification time:	15. 06. 2019 20:06

#	Program:	/corina/corina34_cracker 3.40 0067  02.08.2006

@<TRIPOS>MOLECULE
ASD01916042
  36   37    0    0    0
SMALL
NO_CHARGES


@<TRIPOS>ATOM
   1 C1            -0.0169     1.3980     0.0097 C.ar    
   2 C2             0.0021    -0.0041     0.0020 C.ar    
   3 C3            -1.2044    -0.6765     0.0094 C.ar    
   4 C4            -2.3925     0.0556     0.0242 C.ar    
   5 C5            -3.6886    -0.6573     0.0328 C.2     
   6 N6            -4.8415     0.0406     0.0471 N.am    
   7 O7            -3.7138    -1.8725     0.0269 O.2     
   8 C8             1.2071     2.1411     0.0020 C.1     
   9 C9             2.2107     2.7503    -0.0043 C.1     
  10 C10            3.4348     3.4934    -0.0120 C.ar    
  11 C11            3.4079     4.8906    -0.0042 C.ar    
  12 C12            5.8375     3.5478    -0.0289 C.ar    
  13 C13            4.5907     5.6003    -0.0117 C.ar    
  14 N14           -2.3754     1.3842     0.0312 N.ar    
  15 C15           -1.2513     2.0615     0.0192 C.ar    
  16 C16            4.6621     2.8246    -0.0215 C.ar    
  17 C17            5.8023     4.9326    -0.0274 C.ar    
  18 C18           -6.1251    -0.6655     0.0555 C.3     
  19 C19           -7.1962     0.2311     0.6797 C.3     
  20 F20           -7.3154     1.4064    -0.0698 F       
  21 F21           -8.4220    -0.4431     0.6878 F       
  22 F22           -6.8307     0.5500     1.9919 F       
  23 Cl23           7.3635     2.7202    -0.0481 Cl      
  24 C24           -6.5248    -1.0142    -1.3796 C.3     
  25 H25            0.9369    -0.5448    -0.0098 H       
  26 H26           -1.2281    -1.7562     0.0035 H       
  27 H27           -4.8213     1.0104     0.0518 H       
  28 H28            2.4631     5.4137     0.0073 H       
  29 H29            4.5710     6.6801    -0.0058 H       
  30 H30           -1.2777     3.1411     0.0254 H       
  31 H31            4.6905     1.7450    -0.0227 H       
  32 H32            6.7251     5.4936    -0.0333 H       
  33 H33           -6.0322    -1.5811     0.6395 H       
  34 H34           -7.4798    -1.5395    -1.3733 H       
  35 H35           -6.6176    -0.0985    -1.9636 H       
  36 H36           -5.7617    -1.6529    -1.8243 H       
@<TRIPOS>BOND
   1    1    2 ar
   2    1    8 1
   3    1   15 ar
   4    2    3 ar
   5    2   25 1
   6    3    4 ar
   7    3   26 1
   8    4   14 ar
   9    4    5 1
  10    5    6 am
  11    5    7 2
  12    6   18 1
  13    6   27 1
  14    8    9 3
  15    9   10 1
  16   10   11 ar
  17   10   16 ar
  18   11   13 ar
  19   11   28 1
  20   12   17 ar
  21   12   23 1
  22   12   16 ar
  23   13   17 ar
  24   13   29 1
  25   14   15 ar
  26   15   30 1
  27   16   31 1
  28   17   32 1
  29   18   24 1
  30   18   19 1
  31   18   33 1
  32   19   20 1
  33   19   21 1
  34   19   22 1
  35   24   34 1
  36   24   35 1
  37   24   36 1

#	End of record

