#	Name: ASD00100143
#	Creating user name:	WinNT
#	Creation time:	15. 06. 2019 18:30

#	Modifying user name:	WinNT
#	Modification time:	15. 06. 2019 18:30

#	Program:	/corina/corina34_cracker 3.40 0067  02.08.2006

@<TRIPOS>MOLECULE
ASD00100143
  41   44    0    0    0
SMALL
NO_CHARGES


@<TRIPOS>ATOM
   1 N1            -0.1236     1.5339     0.3562 N.pl3   
   2 C2            -0.0176     0.1655     0.1771 C.2     
   3 N3             1.1017    -0.5003     0.0328 N.2     
   4 C4             0.8175    -1.8198    -0.1192 C.2     
   5 C5            -0.5328    -1.9635    -0.0652 C.2     
   6 N6            -1.0588    -0.7101     0.1278 N.pl3   
   7 C7            -2.4796    -0.3759     0.2538 C.3     
   8 C8            -3.0241     0.0192    -1.0947 C.ar    
   9 C9            -3.4580    -0.9560    -1.9812 C.ar    
  10 C10           -3.9586    -0.5891    -3.2217 C.ar    
  11 C11           -4.0242     0.7460    -3.5715 C.ar    
  12 C12           -3.5909     1.7157    -2.6866 C.ar    
  13 C13           -3.0971     1.3528    -1.4469 C.ar    
  14 O14           -3.3920    -2.2685    -1.6350 O.3     
  15 C15           -3.8562    -3.2174    -2.5973 C.3     
  16 O16            1.4962    -4.2094    -0.4599 O.3     
  17 C17            1.8012    -2.9055    -0.3100 C.2     
  18 C18            3.1450    -2.7388    -0.3608 C.2     
  19 C19            3.7124    -4.0743    -0.5615 C.ar    
  20 C20            2.6132    -4.9501    -0.6142 C.ar    
  21 C21            5.0100    -4.5699    -0.6949 C.ar    
  22 C22            5.2068    -5.9209    -0.8784 C.ar    
  23 C23            4.1227    -6.7847    -0.9305 C.ar    
  24 C24            2.8350    -6.3079    -0.7993 C.ar    
  25 H25            0.6768     2.0762     0.4347 H       
  26 H26           -0.9982     1.9511     0.3993 H       
  27 H27           -1.0857    -2.8870    -0.1530 H       
  28 H28           -3.0252    -1.2430     0.6261 H       
  29 H29           -2.5972     0.4541     0.9506 H       
  30 H30           -4.2966    -1.3463    -3.9136 H       
  31 H31           -4.4139     1.0322    -4.5372 H       
  32 H32           -3.6423     2.7587    -2.9622 H       
  33 H33           -2.7636     2.1125    -0.7555 H       
  34 H34           -3.2687    -3.1256    -3.5108 H       
  35 H35           -3.7482    -4.2249    -2.1955 H       
  36 H36           -4.9059    -3.0256    -2.8197 H       
  37 H37            3.6878    -1.8094    -0.2719 H       
  38 H38            5.8549    -3.8983    -0.6549 H       
  39 H39            6.2092    -6.3091    -0.9826 H       
  40 H40            4.2886    -7.8421    -1.0747 H       
  41 H41            1.9994    -6.9908    -0.8413 H       
@<TRIPOS>BOND
   1    1    2 1
   2    1   25 1
   3    1   26 1
   4    2    3 2
   5    2    6 1
   6    3    4 1
   7    4    5 2
   8    4   17 1
   9    5    6 1
  10    5   27 1
  11    6    7 1
  12    7    8 1
  13    7   28 1
  14    7   29 1
  15    8    9 ar
  16    8   13 ar
  17    9   10 ar
  18    9   14 1
  19   10   11 ar
  20   10   30 1
  21   11   12 ar
  22   11   31 1
  23   12   13 ar
  24   12   32 1
  25   13   33 1
  26   14   15 1
  27   15   34 1
  28   15   35 1
  29   15   36 1
  30   16   17 1
  31   16   20 1
  32   17   18 2
  33   18   19 1
  34   18   37 1
  35   19   20 ar
  36   19   21 ar
  37   20   24 ar
  38   21   22 ar
  39   21   38 1
  40   22   23 ar
  41   22   39 1
  42   23   24 ar
  43   23   40 1
  44   24   41 1

#	End of record

