#	Name: ASD05380053
#	Creating user name:	WinNT
#	Creation time:	15. 06. 2019 20:59

#	Modifying user name:	WinNT
#	Modification time:	15. 06. 2019 20:59

#	Program:	/corina/corina34_cracker 3.40 0067  02.08.2006

@<TRIPOS>MOLECULE
ASD05380053
  48   52    0    0    0
SMALL
NO_CHARGES


@<TRIPOS>ATOM
   1 C1            -0.1179     1.2647     0.6493 C.ar    
   2 C2             0.0247     0.0640    -0.0815 C.ar    
   3 C3             0.9934     1.8538     1.2483 C.ar    
   4 C4             2.2307     1.2557     1.1216 C.ar    
   5 C5             2.3734     0.0742     0.4025 C.ar    
   6 C6             1.2863    -0.5228    -0.1954 C.ar    
   7 N7            -1.0721    -0.4911    -0.6560 N.2     
   8 C8            -2.2455     0.0538    -0.5502 C.2     
   9 N9            -2.4751     1.2080     0.1334 N.am    
  10 C10           -1.4610     1.8532     0.7555 C.2     
  11 C11           -3.7734     1.7294     0.1990 C.ar    
  12 C12           -4.6589     1.2720     1.1659 C.ar    
  13 C13           -4.1759     2.7090    -0.6992 C.ar    
  14 C14           -5.4567     3.2215    -0.6317 C.ar    
  15 C15           -6.3377     2.7605     0.3293 C.ar    
  16 C16           -5.9383     1.7885     1.2283 C.ar    
  17 C17           -3.4127    -0.6259    -1.2185 C.3     
  18 N18           -3.7895     0.1210    -2.4212 N.pl3   
  19 C19           -5.0811     0.0387    -2.9104 C.ar    
  20 N20           -5.9909    -0.7132    -2.3007 N.ar    
  21 O21           -1.6517     2.8863     1.3705 O.2     
  22 C22           -5.4604     0.7534    -4.0596 C.ar    
  23 C23           -6.7849     0.6333    -4.5117 C.ar    
  24 N24           -7.6292    -0.1460    -3.8434 N.ar    
  25 C25           -7.2319    -0.7977    -2.7625 C.ar    
  26 N26           -4.8230     1.5959    -4.9094 N.2     
  27 C27           -5.6520     1.9903    -5.8311 C.2     
  28 N28           -6.8766     1.4236    -5.6294 N.pl3   
  29 C29           -3.0183    -2.0523    -1.6067 C.3     
  30 F30            3.3117     1.8227     1.7005 F       
  31 N31           -8.1427    -1.5961    -2.0904 N.pl3   
  32 H32            0.8875     2.7718     1.8072 H       
  33 H33            3.3486    -0.3811     0.3125 H       
  34 H34            1.4094    -1.4404    -0.7515 H       
  35 H35           -4.3475     0.5130     1.8683 H       
  36 H36           -3.4881     3.0699    -1.4496 H       
  37 H37           -5.7704     3.9833    -1.3300 H       
  38 H38           -7.3384     3.1633     0.3806 H       
  39 H39           -6.6287     1.4303     1.9775 H       
  40 H40           -4.2576    -0.6570    -0.5306 H       
  41 H41           -3.1335     0.6732    -2.8745 H       
  42 H42           -5.4071     2.6666    -6.6367 H       
  43 H43           -7.6670     1.5549    -6.1762 H       
  44 H44           -2.2479    -2.0193    -2.3771 H       
  45 H45           -2.6337    -2.5741    -0.7304 H       
  46 H46           -3.8922    -2.5796    -1.9891 H       
  47 H47           -7.8689    -2.0815    -1.2964 H       
  48 H48           -9.0543    -1.6698    -2.4136 H       
@<TRIPOS>BOND
   1    1    2 ar
   2    1    3 ar
   3    1   10 1
   4    2    7 1
   5    2    6 ar
   6    3    4 ar
   7    3   32 1
   8    4    5 ar
   9    4   30 1
  10    5    6 ar
  11    5   33 1
  12    6   34 1
  13    7    8 2
  14    8    9 1
  15    8   17 1
  16    9   10 am
  17    9   11 1
  18   10   21 2
  19   11   12 ar
  20   11   13 ar
  21   12   16 ar
  22   12   35 1
  23   13   14 ar
  24   13   36 1
  25   14   15 ar
  26   14   37 1
  27   15   16 ar
  28   15   38 1
  29   16   39 1
  30   17   18 1
  31   17   29 1
  32   17   40 1
  33   18   19 1
  34   18   41 1
  35   19   20 ar
  36   19   22 ar
  37   20   25 ar
  38   22   23 ar
  39   22   26 1
  40   23   24 ar
  41   23   28 1
  42   24   25 ar
  43   25   31 1
  44   26   27 2
  45   27   28 1
  46   27   42 1
  47   28   43 1
  48   29   44 1
  49   29   45 1
  50   29   46 1
  51   31   47 1
  52   31   48 1

#	End of record

