#	Name: ASD01885721
#	Creating user name:	WinNT
#	Creation time:	15. 06. 2019 19:50

#	Modifying user name:	WinNT
#	Modification time:	15. 06. 2019 19:50

#	Program:	/corina/corina34_cracker 3.40 0067  02.08.2006

@<TRIPOS>MOLECULE
ASD01885721
  54   57    0    0    0
SMALL
NO_CHARGES


@<TRIPOS>ATOM
   1 C1            -0.3642     1.0937     0.1317 C.ar    
   2 C2             0.8650     1.7232     0.4536 C.ar    
   3 C3             2.0410     0.9355     0.5375 C.ar    
   4 C4             1.9286    -0.4272     0.2978 C.ar    
   5 C5             0.6775    -0.9713    -0.0143 C.ar    
   6 N6            -0.4053    -0.2207    -0.0880 N.ar    
   7 C7            -1.4613     3.2177     0.2718 C.ar    
   8 C8            -0.2519     3.8310     0.5920 C.ar    
   9 C9             0.8979     3.1048     0.6817 C.ar    
  10 C10            3.3478     1.5472     0.8700 C.ar    
  11 C11            0.5661    -2.4277    -0.2695 C.2     
  12 C12           -2.7137     4.0508     0.1800 C.3     
  13 C13           -1.5301     1.8781     0.0434 C.ar    
  14 N14           -0.6304    -2.9692    -0.5723 N.am    
  15 O15            1.5534    -3.1330    -0.2057 O.2     
  16 C16            4.1433     0.9957     1.8747 C.ar    
  17 C17            5.3599     1.5688     2.1803 C.ar    
  18 C18            5.7927     2.6907     1.4912 C.ar    
  19 C19            5.0059     3.2426     0.4925 C.ar    
  20 C20            3.7903     2.6734     0.1755 C.ar    
  21 F21            6.9853     3.2486     1.7942 F       
  22 N22           -2.9473     4.4312    -1.2196 N.3     
  23 C23           -1.8869     5.3246    -1.7065 C.3     
  24 C24           -2.1231     5.6329    -3.1869 C.3     
  25 N25           -3.4458     6.2520    -3.3507 N.3     
  26 C26           -4.5062     5.3586    -2.8638 C.3     
  27 C27           -4.2700     5.0503    -1.3834 C.3     
  28 C28           -4.3295     6.3484    -0.5758 C.3     
  29 C29           -1.0437     6.5953    -3.6865 C.3     
  30 F30            0.2155     6.0066    -3.5281 F       
  31 F31           -1.2600     6.8769    -5.0397 F       
  32 F32           -1.0996     7.7825    -2.9484 F       
  33 H33            2.8002    -1.0627     0.3513 H       
  34 H34           -0.2253     4.8957     0.7712 H       
  35 H35            1.8297     3.5922     0.9278 H       
  36 H36           -3.5622     3.4727     0.5458 H       
  37 H37           -2.5977     4.9492     0.7862 H       
  38 H38           -2.4755     1.4182    -0.2039 H       
  39 H39           -1.4186    -2.4062    -0.6233 H       
  40 H40           -0.7032    -3.9220    -0.7393 H       
  41 H41            3.8068     0.1217     2.4125 H       
  42 H42            5.9763     1.1429     2.9582 H       
  43 H43            5.3471     4.1173    -0.0412 H       
  44 H44            3.1779     3.1041    -0.6028 H       
  45 H45           -1.9022     6.2526    -1.1348 H       
  46 H46           -0.9185     4.8390    -1.5862 H       
  47 H47           -2.0803     4.7081    -3.7623 H       
  48 H48           -3.4860     7.1472    -2.8869 H       
  49 H49           -5.4746     5.8442    -2.9841 H       
  50 H50           -4.4909     4.4306    -3.4354 H       
  51 H51           -5.0390     4.3647    -1.0275 H       
  52 H52           -5.3152     6.8004    -0.6866 H       
  53 H53           -4.1459     6.1306     0.4763 H       
  54 H54           -3.5699     7.0392    -0.9418 H       
@<TRIPOS>BOND
   1    1    6 ar
   2    1    2 ar
   3    1   13 ar
   4    2    3 ar
   5    2    9 ar
   6    3   10 1
   7    3    4 ar
   8    4    5 ar
   9    4   33 1
  10    5   11 1
  11    5    6 ar
  12    7   12 1
  13    7    8 ar
  14    7   13 ar
  15    8    9 ar
  16    8   34 1
  17    9   35 1
  18   10   16 ar
  19   10   20 ar
  20   11   14 am
  21   11   15 2
  22   12   22 1
  23   12   36 1
  24   12   37 1
  25   13   38 1
  26   14   39 1
  27   14   40 1
  28   16   17 ar
  29   16   41 1
  30   17   18 ar
  31   17   42 1
  32   18   19 ar
  33   18   21 1
  34   19   20 ar
  35   19   43 1
  36   20   44 1
  37   22   23 1
  38   22   27 1
  39   23   24 1
  40   23   45 1
  41   23   46 1
  42   24   29 1
  43   24   25 1
  44   24   47 1
  45   25   26 1
  46   25   48 1
  47   26   27 1
  48   26   49 1
  49   26   50 1
  50   27   28 1
  51   27   51 1
  52   28   52 1
  53   28   53 1
  54   28   54 1
  55   29   30 1
  56   29   31 1
  57   29   32 1

#	End of record

