#	Name: ASD02198362
#	Creating user name:	WinNT
#	Creation time:	15. 06. 2019 20:19

#	Modifying user name:	WinNT
#	Modification time:	15. 06. 2019 20:19

#	Program:	/corina/corina34_cracker 3.40 0067  02.08.2006

@<TRIPOS>MOLECULE
ASD02198362
  40   42    0    0    0
SMALL
NO_CHARGES


@<TRIPOS>ATOM
   1 C1             0.0017     1.4017     0.2385 C.2     
   2 C2             0.0125     0.0162     0.2367 C.2     
   3 S3             1.6713     1.9494     0.1116 S.3     
   4 C4             2.2168     0.3308     0.0689 C.2     
   5 N5             1.2154    -0.4984     0.1446 N.2     
   6 N6            -1.1362    -0.7513     0.3241 N.pl3   
   7 C7            -1.1297     2.2173     0.3201 C.2     
   8 C8            -0.9799     3.7168     0.3105 C.3     
   9 O9            -2.2358     1.7171     0.3989 O.2     
  10 N10            3.5370    -0.0461    -0.0324 N.pl3   
  11 C11           -2.2702     4.3550    -0.2079 C.3     
  12 C12            3.8880    -1.3965     0.0626 C.ar    
  13 C13            4.9923    -1.8786    -0.6282 C.ar    
  14 C14            5.3366    -3.2126    -0.5326 C.ar    
  15 C15            4.5824    -4.0688     0.2505 C.ar    
  16 C16            3.4816    -3.5911     0.9399 C.ar    
  17 C17            3.1362    -2.2568     0.8525 C.ar    
  18 C18           -2.1181     5.8774    -0.2176 C.3     
  19 C19           -1.8400     6.3712     1.2035 C.3     
  20 C20           -0.5496     5.7331     1.7218 C.3     
  21 C21           -0.7018     4.2107     1.7316 C.3     
  22 Cl22           5.0177    -5.7452     0.3680 Cl      
  23 H23           -2.0030    -0.3211     0.3908 H       
  24 H24           -1.0742    -1.7193     0.3187 H       
  25 H25           -0.1504     3.9949    -0.3397 H       
  26 H26            4.2238     0.6250    -0.1696 H       
  27 H27           -2.4683     4.0031    -1.2203 H       
  28 H28           -3.0997     4.0769     0.4423 H       
  29 H29            5.5810    -1.2109    -1.2398 H       
  30 H30            6.1950    -3.5881    -1.0698 H       
  31 H31            2.8946    -4.2615     1.5501 H       
  32 H32            2.2770    -1.8846     1.3907 H       
  33 H33           -1.2886     6.1555    -0.8678 H       
  34 H34           -3.0373     6.3320    -0.5869 H       
  35 H35           -1.7316     7.4558     1.1966 H       
  36 H36           -2.6695     6.0931     1.8537 H       
  37 H37            0.2799     6.0112     1.0717 H       
  38 H38           -0.3515     6.0849     2.7343 H       
  39 H39           -1.5313     3.9326     2.3817 H       
  40 H40            0.2175     3.7560     2.1009 H       
@<TRIPOS>BOND
   1    1    2 2
   2    1    3 1
   3    1    7 1
   4    2    6 1
   5    2    5 1
   6    3    4 1
   7    4    5 2
   8    4   10 1
   9    6   23 1
  10    6   24 1
  11    7    8 1
  12    7    9 2
  13    8   11 1
  14    8   21 1
  15    8   25 1
  16   10   12 1
  17   10   26 1
  18   11   18 1
  19   11   27 1
  20   11   28 1
  21   12   13 ar
  22   12   17 ar
  23   13   14 ar
  24   13   29 1
  25   14   15 ar
  26   14   30 1
  27   15   16 ar
  28   15   22 1
  29   16   17 ar
  30   16   31 1
  31   17   32 1
  32   18   19 1
  33   18   33 1
  34   18   34 1
  35   19   20 1
  36   19   35 1
  37   19   36 1
  38   20   21 1
  39   20   37 1
  40   20   38 1
  41   21   39 1
  42   21   40 1

#	End of record

