#	Name: ASD01900839
#	Creating user name:	WinNT
#	Creation time:	15. 06. 2019 19:52

#	Modifying user name:	WinNT
#	Modification time:	15. 06. 2019 19:52

#	Program:	/corina/corina34_cracker 3.40 0067  02.08.2006

@<TRIPOS>MOLECULE
ASD01900839
  70   74    0    0    0
SMALL
NO_CHARGES


@<TRIPOS>ATOM
   1 C1             3.7494     0.5336     0.8363 C.ar    
   2 C2             4.4013    -0.6784     0.7750 C.ar    
   3 C3             5.7498    -0.7374     0.4109 C.ar    
   4 C4             6.4476     0.4323     0.1120 C.ar    
   5 C5             5.7963     1.6515     0.1757 C.ar    
   6 C6             4.4377     1.7061     0.5328 C.ar    
   7 N7             6.4554     2.8457    -0.0977 N.pl3   
   8 C8             5.6827     3.9780    -0.6209 C.3     
   9 N9             4.4186     4.1075     0.1046 N.am    
  10 C10            3.7764     3.0246     0.5855 C.2     
  11 C11            3.8666     5.3789     0.3031 C.ar    
  12 C12            4.3813     6.2139     1.2861 C.ar    
  13 C13            3.8364     7.4676     1.4813 C.ar    
  14 C14            2.7748     7.8928     0.6960 C.ar    
  15 C15            2.2601     7.0592    -0.2862 C.ar    
  16 C16            2.8079     5.8077    -0.4867 C.ar    
  17 O17            2.2382     9.1271     0.8894 O.3     
  18 O18            2.6616     3.1328     1.0588 O.2     
  19 C19            6.4388    -2.0449     0.3429 C.2     
  20 C20            1.1560     9.5050     0.0361 C.3     
  21 F21            0.0799     8.6332     0.2338 F       
  22 F22            0.7588    10.8121     0.3378 F       
  23 F23            1.5699     9.4397    -1.2987 F       
  24 O24            7.6102    -2.0983     0.0268 O.2     
  25 O25            5.7670    -3.1759     0.6316 O.3     
  26 C26            6.5065    -4.4225     0.5441 C.3     
  27 C27            7.1460    -4.7322     1.8991 C.3     
  28 C28            5.5527    -5.5553     0.1594 C.3     
  29 C29            6.4980     5.2641    -0.4567 C.3     
  30 C30            5.3972     3.7520    -2.1082 C.3     
  31 C31            4.6534     4.9661    -2.6696 C.3     
  32 N32            5.4727     6.1711    -2.4878 N.3     
  33 C33            5.7219     6.4345    -1.0648 C.3     
  34 C34            4.8515     7.3330    -3.1374 C.3     
  35 C35            5.6641     8.5674    -2.8425 C.ar    
  36 C36            6.7065     8.9237    -3.6779 C.ar    
  37 C37            7.4532    10.0554    -3.4095 C.ar    
  38 C38            7.1577    10.8334    -2.3035 C.ar    
  39 C39            6.1122    10.4760    -1.4658 C.ar    
  40 C40            5.3628     9.3452    -1.7405 C.ar    
  41 F41            5.8219    11.2338    -0.3857 F       
  42 F42            7.8874    11.9395    -2.0402 F       
  43 H43            2.7067     0.5742     1.1145 H       
  44 H44            3.8680    -1.5877     1.0098 H       
  45 H45            7.4899     0.3870    -0.1672 H       
  46 H46            7.4097     2.9286     0.0553 H       
  47 H47            5.2073     5.8828     1.8980 H       
  48 H48            4.2366     8.1171     2.2457 H       
  49 H49            1.4334     7.3908    -0.8969 H       
  50 H50            2.4103     5.1607    -1.2546 H       
  51 H51            7.2854    -4.3305    -0.2128 H       
  52 H52            6.3671    -4.8242     2.6560 H       
  53 H53            7.7011    -5.6680     1.8334 H       
  54 H54            7.8254    -3.9252     2.1731 H       
  55 H55            5.0971    -5.3346    -0.8059 H       
  56 H56            6.1079    -6.4911     0.0937 H       
  57 H57            4.7738    -5.6473     0.9163 H       
  58 H58            6.6704     5.4530     0.6029 H       
  59 H59            7.4545     5.1566    -0.9682 H       
  60 H60            6.3376     3.6217    -2.6437 H       
  61 H61            4.7820     2.8604    -2.2294 H       
  62 H62            4.4608     4.8148    -3.7317 H       
  63 H63            3.7069     5.0876    -2.1428 H       
  64 H64            4.7709     6.5491    -0.5447 H       
  65 H65            6.3049     7.3497    -0.9615 H       
  66 H66            4.8151     7.1707    -4.2146 H       
  67 H67            3.8391     7.4646    -2.7555 H       
  68 H68            6.9379     8.3169    -4.5408 H       
  69 H69            8.2675    10.3325    -4.0626 H       
  70 H70            4.5452     9.0685    -1.0914 H       
@<TRIPOS>BOND
   1    1    2 ar
   2    1    6 ar
   3    1   43 1
   4    2    3 ar
   5    2   44 1
   6    3    4 ar
   7    3   19 1
   8    4    5 ar
   9    4   45 1
  10    5    7 1
  11    5    6 ar
  12    6   10 1
  13    7    8 1
  14    7   46 1
  15    8    9 1
  16    8   30 1
  17    8   29 1
  18    9   10 am
  19    9   11 1
  20   10   18 2
  21   11   12 ar
  22   11   16 ar
  23   12   13 ar
  24   12   47 1
  25   13   14 ar
  26   13   48 1
  27   14   15 ar
  28   14   17 1
  29   15   16 ar
  30   15   49 1
  31   16   50 1
  32   17   20 1
  33   19   24 2
  34   19   25 1
  35   20   21 1
  36   20   22 1
  37   20   23 1
  38   25   26 1
  39   26   27 1
  40   26   28 1
  41   26   51 1
  42   27   52 1
  43   27   53 1
  44   27   54 1
  45   28   55 1
  46   28   56 1
  47   28   57 1
  48   29   33 1
  49   29   58 1
  50   29   59 1
  51   30   31 1
  52   30   60 1
  53   30   61 1
  54   31   32 1
  55   31   62 1
  56   31   63 1
  57   32   33 1
  58   32   34 1
  59   33   64 1
  60   33   65 1
  61   34   35 1
  62   34   66 1
  63   34   67 1
  64   35   36 ar
  65   35   40 ar
  66   36   37 ar
  67   36   68 1
  68   37   38 ar
  69   37   69 1
  70   38   39 ar
  71   38   42 1
  72   39   40 ar
  73   39   41 1
  74   40   70 1

#	End of record

