#	Name: ASD02560006
#	Creating user name:	WinNT
#	Creation time:	15. 06. 2019 20:24

#	Modifying user name:	WinNT
#	Modification time:	15. 06. 2019 20:24

#	Program:	/corina/corina34_cracker 3.40 0067  02.08.2006

@<TRIPOS>MOLECULE
ASD02560006
  50   51    0    0    0
SMALL
NO_CHARGES


@<TRIPOS>ATOM
   1 N1             0.0505     1.5084    -0.1956 N.am    
   2 C2            -0.0526     0.1669    -0.2323 C.2     
   3 N3             1.0446    -0.6116    -0.2203 N.am    
   4 C4             2.2936    -0.0550    -0.1704 C.2     
   5 C5             2.4260     1.2882    -0.1329 C.2     
   6 C6             1.2632     2.0957    -0.1460 C.2     
   7 O7             1.3574     3.3094    -0.1128 O.2     
   8 O8            -1.1529    -0.3487    -0.2765 O.2     
   9 C9             3.7934     1.9194    -0.0772 C.3     
  10 C10            4.0230     2.7510    -1.3408 C.3     
  11 C11            3.5155    -0.9369    -0.1570 C.3     
  12 C12            3.8795    -1.2692     1.2672 C.ar    
  13 C13            0.9007    -2.0690    -0.2606 C.3     
  14 O14            0.5258    -2.4744    -1.5786 O.3     
  15 C15            1.6164    -2.5365    -2.4999 C.3     
  16 C16            1.1013    -2.9787    -3.8710 C.3     
  17 C17            3.4439    -2.4525     1.8338 C.ar    
  18 C18            3.7778    -2.7573     3.1401 C.ar    
  19 C19            4.5475    -1.8790     3.8797 C.ar    
  20 C20            4.9838    -0.6962     3.3128 C.ar    
  21 C21            4.6536    -0.3934     2.0051 C.ar    
  22 C22            3.8877     2.8242     1.1530 C.3     
  23 C23            5.8226     0.2615     4.1193 C.3     
  24 C24            3.3021    -4.0468     3.7581 C.3     
  25 H25           -0.7508     2.0550    -0.2090 H       
  26 H26            4.5515     1.1389    -0.0132 H       
  27 H27            3.9558     2.1065    -2.2172 H       
  28 H28            3.2648     3.5316    -1.4048 H       
  29 H29            5.0120     3.2076    -1.3005 H       
  30 H30            3.3056    -1.8569    -0.7025 H       
  31 H31            4.3460    -0.4144    -0.6318 H       
  32 H32            1.8490    -2.5352     0.0070 H       
  33 H33            0.1315    -2.3778     0.4472 H       
  34 H34            2.0767    -1.5521    -2.5849 H       
  35 H35            2.3550    -3.2532    -2.1408 H       
  36 H36            1.9331    -3.0261    -4.5737 H       
  37 H37            0.6409    -3.9631    -3.7860 H       
  38 H38            0.3627    -2.2620    -4.2301 H       
  39 H39            2.8425    -3.1386     1.2559 H       
  40 H40            4.8077    -2.1168     4.9006 H       
  41 H41            4.9945     0.5308     1.5622 H       
  42 H42            3.7241     2.2317     2.0532 H       
  43 H43            4.8767     3.2807     1.1933 H       
  44 H44            3.1296     3.6047     1.0890 H       
  45 H45            6.8775     0.0211     3.9866 H       
  46 H46            5.6369     1.2809     3.7809 H       
  47 H47            5.5602     0.1752     5.1737 H       
  48 H48            4.0397    -4.8292     3.5793 H       
  49 H49            3.1717    -3.9089     4.8315 H       
  50 H50            2.3509    -4.3351     3.3106 H       
@<TRIPOS>BOND
   1    1    2 am
   2    1    6 am
   3    1   25 1
   4    2    3 am
   5    2    8 2
   6    3    4 1
   7    3   13 1
   8    4    5 2
   9    4   11 1
  10    5    6 1
  11    5    9 1
  12    6    7 2
  13    9   10 1
  14    9   22 1
  15    9   26 1
  16   10   27 1
  17   10   28 1
  18   10   29 1
  19   11   12 1
  20   11   30 1
  21   11   31 1
  22   12   17 ar
  23   12   21 ar
  24   13   14 1
  25   13   32 1
  26   13   33 1
  27   14   15 1
  28   15   16 1
  29   15   34 1
  30   15   35 1
  31   16   36 1
  32   16   37 1
  33   16   38 1
  34   17   18 ar
  35   17   39 1
  36   18   19 ar
  37   18   24 1
  38   19   20 ar
  39   19   40 1
  40   20   21 ar
  41   20   23 1
  42   21   41 1
  43   22   42 1
  44   22   43 1
  45   22   44 1
  46   23   45 1
  47   23   46 1
  48   23   47 1
  49   24   48 1
  50   24   49 1
  51   24   50 1

#	End of record

