#	Name: ASD08170569
#	Creating user name:	WinNT
#	Creation time:	15. 06. 2019 21:17

#	Modifying user name:	WinNT
#	Modification time:	15. 06. 2019 21:17

#	Program:	/corina/corina34_cracker 3.40 0067  02.08.2006

@<TRIPOS>MOLECULE
ASD08170569
  80   83    0    0    0
SMALL
NO_CHARGES


@<TRIPOS>ATOM
   1 N1            -0.0159     1.3150     0.0224 N.ar    
   2 C2             0.0017    -0.0034     0.0124 C.ar    
   3 C3            -1.2931    -0.7743     0.0243 C.3     
   4 C4            -4.2984    -0.6746     2.4294 C.3     
   5 C5            -5.5932    -1.4455     2.4412 C.2     
   6 N6            -5.8033    -2.5767     3.0361 N.2     
   7 N7            -6.9625    -3.0651     2.9277 N.2     
   8 C8            -7.8359    -2.3975     2.2358 C.2     
   9 S9            -7.0970    -0.9657     1.6538 S.3     
  10 N10           -9.1540    -2.7791     2.0098 N.am    
  11 C11           -3.4530    -1.1158     1.2328 C.3     
  12 C12           -2.1384    -0.3331     1.2208 C.3     
  13 C13            1.2122    -0.6808    -0.0095 C.ar    
  14 C14            2.3785     0.0690    -0.0202 C.ar    
  15 C15            2.2616     1.4575    -0.0083 C.ar    
  16 N16            1.0600     2.0148     0.0126 N.ar    
  17 N17            3.4043     2.2567    -0.0179 N.am    
  18 C18           -9.6205    -3.9317     2.5297 C.2     
  19 O19           -8.8908    -4.6361     3.1947 O.2     
  20 C20          -11.0488    -4.3451     2.2847 C.3     
  21 C21          -11.3154    -5.6609     2.9693 C.ar    
  22 C22          -11.7761    -5.6812     4.2724 C.ar    
  23 C23          -12.0205    -6.8882     4.9004 C.ar    
  24 C24          -11.3486    -8.0545     2.9203 C.ar    
  25 C25          -11.1045    -6.8475     2.2922 C.ar    
  26 C26          -11.8047    -8.0749     4.2251 C.ar    
  27 C27            3.2889     3.5963    -0.1113 C.2     
  28 C28            4.5141     4.4673    -0.0047 C.3     
  29 O29            2.1992     4.1007    -0.2812 O.2     
  30 C30            4.1152     5.9141    -0.1410 C.ar    
  31 C31            3.7798     6.6471     0.9817 C.ar    
  32 C32            3.4138     7.9745     0.8567 C.ar    
  33 C33            3.3838     8.5686    -0.3909 C.ar    
  34 C34            3.7202     7.8356    -1.5138 C.ar    
  35 C35            4.0903     6.5098    -1.3884 C.ar    
  36 C36            3.6871     8.4832    -2.8742 C.3     
  37 C37            5.0338     9.0887    -3.1752 C.2     
  38 O38            5.9321     9.0029    -2.3649 O.2     
  39 N39            5.2400     9.7257    -4.3449 N.am    
  40 C40            6.5493    10.3144    -4.6375 C.3     
  41 C41            6.5156    10.9719    -6.0187 C.3     
  42 C42            7.8829    11.5867    -6.3243 C.3     
  43 C43            7.8493    12.2441    -7.7054 C.3     
  44 H44           -1.8401    -0.5802    -0.8983 H       
  45 H45           -1.0805    -1.8405     0.1031 H       
  46 H46           -4.5110     0.3916     2.3505 H       
  47 H47           -3.7514    -0.8687     3.3520 H       
  48 H48           -9.7376    -2.2157     1.4779 H       
  49 H49           -3.2404    -2.1820     1.3116 H       
  50 H50           -4.0000    -0.9216     0.3102 H       
  51 H51           -1.5915    -0.5273     2.1434 H       
  52 H52           -2.3511     0.7331     1.1420 H       
  53 H53            1.2451    -1.7603    -0.0176 H       
  54 H54            3.3472    -0.4082    -0.0369 H       
  55 H55            4.2821     1.8485     0.0427 H       
  56 H56          -11.7206    -3.5852     2.6839 H       
  57 H57          -11.2174    -4.4524     1.2132 H       
  58 H58          -11.9447    -4.7541     4.8001 H       
  59 H59          -12.3798    -6.9040     5.9188 H       
  60 H60          -11.1838    -8.9816     2.3913 H       
  61 H61          -10.7478    -6.8316     1.2729 H       
  62 H62          -11.9953    -9.0179     4.7158 H       
  63 H63            4.9880     4.3107     0.9643 H       
  64 H64            5.2148     4.2073    -0.7981 H       
  65 H65            3.8032     6.1829     1.9566 H       
  66 H66            3.1510     8.5471     1.7339 H       
  67 H67            3.0972     9.6053    -0.4886 H       
  68 H68            4.3531     5.9372    -2.2656 H       
  69 H69            3.4494     7.7327    -3.6281 H       
  70 H70            2.9267     9.2640    -2.8864 H       
  71 H71            4.5216     9.7944    -4.9930 H       
  72 H72            6.7869    11.0648    -3.8836 H       
  73 H73            7.3097     9.5335    -4.6253 H       
  74 H74            6.2779    10.2214    -6.7726 H       
  75 H75            5.7552    11.7527    -6.0309 H       
  76 H76            8.1206    12.3371    -5.5703 H       
  77 H77            8.6433    10.8058    -6.3120 H       
  78 H78            8.8233    12.6821    -7.9231 H       
  79 H79            7.6116    11.4937    -8.4593 H       
  80 H80            7.0888    13.0250    -7.7176 H       
@<TRIPOS>BOND
   1    1    2 ar
   2    1   16 ar
   3    2    3 1
   4    2   13 ar
   5    3   12 1
   6    3   44 1
   7    3   45 1
   8    4    5 1
   9    4   11 1
  10    4   46 1
  11    4   47 1
  12    5    6 2
  13    5    9 1
  14    6    7 1
  15    7    8 2
  16    8    9 1
  17    8   10 1
  18   10   18 am
  19   10   48 1
  20   11   12 1
  21   11   49 1
  22   11   50 1
  23   12   51 1
  24   12   52 1
  25   13   14 ar
  26   13   53 1
  27   14   15 ar
  28   14   54 1
  29   15   16 ar
  30   15   17 1
  31   17   27 am
  32   17   55 1
  33   18   19 2
  34   18   20 1
  35   20   21 1
  36   20   56 1
  37   20   57 1
  38   21   22 ar
  39   21   25 ar
  40   22   23 ar
  41   22   58 1
  42   23   26 ar
  43   23   59 1
  44   24   25 ar
  45   24   26 ar
  46   24   60 1
  47   25   61 1
  48   26   62 1
  49   27   28 1
  50   27   29 2
  51   28   30 1
  52   28   63 1
  53   28   64 1
  54   30   31 ar
  55   30   35 ar
  56   31   32 ar
  57   31   65 1
  58   32   33 ar
  59   32   66 1
  60   33   34 ar
  61   33   67 1
  62   34   35 ar
  63   34   36 1
  64   35   68 1
  65   36   37 1
  66   36   69 1
  67   36   70 1
  68   37   38 2
  69   37   39 am
  70   39   40 1
  71   39   71 1
  72   40   41 1
  73   40   72 1
  74   40   73 1
  75   41   42 1
  76   41   74 1
  77   41   75 1
  78   42   43 1
  79   42   76 1
  80   42   77 1
  81   43   78 1
  82   43   79 1
  83   43   80 1

#	End of record

