#	Name: ASD01881079
#	Creating user name:	WinNT
#	Creation time:	15. 06. 2019 19:41

#	Modifying user name:	WinNT
#	Modification time:	15. 06. 2019 19:41

#	Program:	/corina/corina34_cracker 3.40 0067  02.08.2006

@<TRIPOS>MOLECULE
ASD01881079
  40   42    0    0    0
SMALL
NO_CHARGES


@<TRIPOS>ATOM
   1 C1            -0.0169     1.3950     0.0097 C.ar    
   2 C2             0.0021    -0.0041     0.0020 C.ar    
   3 C3             1.2091    -0.6926    -0.0127 C.ar    
   4 C4             2.4034     0.0238    -0.0202 C.ar    
   5 C5             2.3732     1.4390    -0.0128 C.ar    
   6 C6             1.1476     2.1093     0.0024 C.ar    
   7 C7             3.7067    -0.6442    -0.0352 C.2     
   8 C8             4.8268     0.0959    -0.0415 C.2     
   9 N9             4.8013     1.4614    -0.0345 N.am    
  10 C10            3.6492     2.1602    -0.0207 C.2     
  11 C11            6.0710     2.1921    -0.0422 C.3     
  12 C12            6.5001     2.4537    -1.4873 C.3     
  13 C13            7.8262     3.2168    -1.4954 C.3     
  14 O14            3.6680     3.3781    -0.0155 O.2     
  15 Cl15           1.1045     3.8448     0.0110 Cl      
  16 C16           -1.2751    -0.7576     0.0101 C.ar    
  17 C17           -2.4990    -0.0793     0.0254 C.ar    
  18 C18           -3.6636    -0.8255     0.0325 C.ar    
  19 C19           -3.5798    -2.2151     0.0243 C.ar    
  20 N20           -2.4057    -2.8243     0.0099 N.ar    
  21 C21           -1.2735    -2.1499    -0.0031 C.ar    
  22 O22           -4.7175    -2.9544     0.0317 O.3     
  23 C23           -4.5678    -4.3755     0.0226 C.3     
  24 F24           -4.8678    -0.2133     0.0477 F       
  25 H25           -0.9629     1.9160     0.0170 H       
  26 H26            1.2210    -1.7726    -0.0179 H       
  27 H27            3.7662    -1.7226    -0.0408 H       
  28 H28            5.7827    -0.4067    -0.0522 H       
  29 H29            5.9467     3.1421     0.4775 H       
  30 H30            6.8344     1.5994     0.4618 H       
  31 H31            6.6244     1.5037    -2.0071 H       
  32 H32            5.7368     3.0464    -1.9914 H       
  33 H33            8.1319     3.4032    -2.5249 H       
  34 H34            7.7019     4.1668    -0.9757 H       
  35 H35            8.5896     2.6241    -0.9914 H       
  36 H36           -2.5335     1.0001     0.0318 H       
  37 H37           -0.3343    -2.6830    -0.0147 H       
  38 H38           -4.0100    -4.6877     0.9055 H       
  39 H39           -5.5517    -4.8445     0.0299 H       
  40 H40           -4.0276    -4.6782    -0.8744 H       
@<TRIPOS>BOND
   1    1    2 ar
   2    1    6 ar
   3    1   25 1
   4    2    3 ar
   5    2   16 1
   6    3    4 ar
   7    3   26 1
   8    4    5 ar
   9    4    7 1
  10    5    6 ar
  11    5   10 1
  12    6   15 1
  13    7    8 2
  14    7   27 1
  15    8    9 1
  16    8   28 1
  17    9   10 am
  18    9   11 1
  19   10   14 2
  20   11   12 1
  21   11   29 1
  22   11   30 1
  23   12   13 1
  24   12   31 1
  25   12   32 1
  26   13   33 1
  27   13   34 1
  28   13   35 1
  29   16   17 ar
  30   16   21 ar
  31   17   18 ar
  32   17   36 1
  33   18   19 ar
  34   18   24 1
  35   19   20 ar
  36   19   22 1
  37   20   21 ar
  38   21   37 1
  39   22   23 1
  40   23   38 1
  41   23   39 1
  42   23   40 1

#	End of record

