#	Name: ASD02508306
#	Creating user name:	WinNT
#	Creation time:	15. 06. 2019 20:24

#	Modifying user name:	WinNT
#	Modification time:	15. 06. 2019 20:24

#	Program:	/corina/corina34_cracker 3.40 0067  02.08.2006

@<TRIPOS>MOLECULE
ASD02508306
  53   57    0    0    0
SMALL
NO_CHARGES


@<TRIPOS>ATOM
   1 C1            -0.0167     1.3818     0.0096 C.ar    
   2 C2             0.0021    -0.0041     0.0020 C.ar    
   3 C3            -1.2098    -0.6984     0.0103 C.ar    
   4 C4            -2.4045    -0.0112     0.0258 C.ar    
   5 C5            -2.4121     1.3718     0.0333 C.ar    
   6 C6            -1.2168     2.0662     0.0299 C.ar    
   7 S7            -3.9416     2.2465     0.0530 S.o2    
   8 O8            -3.6748     3.5334    -0.4871 O.2     
   9 O9            -4.9156     1.3637    -0.4866 O.2     
  10 C10           -4.3778     2.4963     1.7418 C.ar    
  11 C11           -3.9539     3.6340     2.4029 C.ar    
  12 C12           -4.2951     3.8329     3.7320 C.ar    
  13 C13           -5.0672     2.8870     4.3965 C.ar    
  14 C14           -5.4885     1.7477     3.7278 C.ar    
  15 C15           -5.1478     1.5572     2.4016 C.ar    
  16 O16           -3.8639     4.9540     4.3721 O.3     
  17 C17           -4.5361     5.2996     5.5881 C.3     
  18 C18           -4.6676     4.0312     6.4421 C.3     
  19 O19           -5.4201     3.0663     5.6987 O.3     
  20 C20            1.4103     1.8820    -0.0013 C.3     
  21 C21            2.2667     0.6053    -0.0163 C.3     
  22 N22            1.3062    -0.5013    -0.0131 N.am    
  23 C23            3.1268     0.5579    -1.2808 C.3     
  24 S24            1.7091    -2.1075    -0.0251 S.o2    
  25 O25            0.5896    -2.7981    -0.5627 O.2     
  26 O26            3.0138    -2.1898    -0.5821 O.2     
  27 C27            1.8516    -2.6220     1.6541 C.ar    
  28 C28            0.7464    -3.1152     2.3220 C.ar    
  29 C29            0.8582    -3.5188     3.6394 C.ar    
  30 C30            2.0753    -3.4297     4.2887 C.ar    
  31 C31            3.1807    -2.9374     3.6205 C.ar    
  32 C32            3.0699    -2.5378     2.3018 C.ar    
  33 H33           -1.2108    -1.7784     0.0041 H       
  34 H34           -3.3378    -0.5545     0.0318 H       
  35 H35           -1.2211     3.1461     0.0358 H       
  36 H36           -3.3561     4.3685     1.8836 H       
  37 H37           -6.0864     1.0101     4.2425 H       
  38 H38           -5.4769     0.6691     1.8827 H       
  39 H39           -3.9566     6.0480     6.1285 H       
  40 H40           -5.5265     5.6942     5.3612 H       
  41 H41           -3.6774     3.6334     6.6642 H       
  42 H42           -5.1870     4.2659     7.3712 H       
  43 H43            1.5981     2.4765    -0.8954 H       
  44 H44            1.6152     2.4669     0.8954 H       
  45 H45            2.8966     0.5619     0.8722 H       
  46 H46            3.8018     1.4137    -1.2934 H       
  47 H47            3.7086    -0.3639    -1.2902 H       
  48 H48            2.4829     0.5901    -2.1597 H       
  49 H49           -0.2045    -3.1848     1.8148 H       
  50 H50           -0.0055    -3.9034     4.1615 H       
  51 H51            2.1625    -3.7443     5.3182 H       
  52 H52            4.1315    -2.8674     4.1279 H       
  53 H53            3.9336    -2.1532     1.7797 H       
@<TRIPOS>BOND
   1    1    2 ar
   2    1   20 1
   3    1    6 ar
   4    2    3 ar
   5    2   22 1
   6    3    4 ar
   7    3   33 1
   8    4    5 ar
   9    4   34 1
  10    5    6 ar
  11    5    7 1
  12    6   35 1
  13    7    8 2
  14    7    9 2
  15    7   10 1
  16   10   11 ar
  17   10   15 ar
  18   11   12 ar
  19   11   36 1
  20   12   13 ar
  21   12   16 1
  22   13   14 ar
  23   13   19 1
  24   14   15 ar
  25   14   37 1
  26   15   38 1
  27   16   17 1
  28   17   18 1
  29   17   39 1
  30   17   40 1
  31   18   19 1
  32   18   41 1
  33   18   42 1
  34   20   21 1
  35   20   43 1
  36   20   44 1
  37   21   22 1
  38   21   23 1
  39   21   45 1
  40   22   24 am
  41   23   46 1
  42   23   47 1
  43   23   48 1
  44   24   25 2
  45   24   26 2
  46   24   27 1
  47   27   28 ar
  48   27   32 ar
  49   28   29 ar
  50   28   49 1
  51   29   30 ar
  52   29   50 1
  53   30   31 ar
  54   30   51 1
  55   31   32 ar
  56   31   52 1
  57   32   53 1

#	End of record

