#	Name: ASD05143080
#	Creating user name:	WinNT
#	Creation time:	15. 06. 2019 20:57

#	Modifying user name:	WinNT
#	Modification time:	15. 06. 2019 20:57

#	Program:	/corina/corina34_cracker 3.40 0067  02.08.2006

@<TRIPOS>MOLECULE
ASD05143080
 149  152    0    0    0
SMALL
NO_CHARGES


@<TRIPOS>ATOM
   1 C1            -2.0934     5.4797     7.5899 C.2     
   2 C2            -1.6051     4.7545     8.8173 C.3     
   3 N3            -1.2076     6.0102     6.7236 N.am    
   4 O4            -3.2834     5.5816     7.3789 O.2     
   5 C5            -1.6822     6.7152     5.5304 C.3     
   6 C6            -2.5134     5.7606     4.6708 C.3     
   7 C7            -2.5331     7.8879     5.9449 C.2     
   8 C8            -1.6184     4.6356     4.1471 C.3     
   9 C9            -2.4496     3.6810     3.2876 C.3     
  10 N10           -1.5927     2.6037     2.7861 N.pl3   
  11 C11           -2.1228     1.6199     1.9854 C.2     
  12 N12           -3.4572     1.6469     1.6553 N.pl3   
  13 N13           -1.3604     0.6615     1.5392 N.2     
  14 O14           -3.0253     7.9184     7.0530 O.2     
  15 N15           -2.7471     8.9029     5.0844 N.am    
  16 C16           -3.5743    10.0429     5.4874 C.3     
  17 C17           -2.6745    11.2387     5.8054 C.3     
  18 C18           -1.5183    10.7847     6.6984 C.3     
  19 C19           -0.3752    10.3105     5.8386 C.2     
  20 N20            0.8906    10.7284     6.1382 N.am    
  21 C21            1.9561    10.2120     5.2490 C.3     
  22 C22            2.1053    11.1627     4.0595 C.3     
  23 C23            2.7716    10.4238     2.8972 C.3     
  24 C24            3.7286    11.3714     2.1712 C.3     
  25 N25            3.6792    11.0817     0.7240 N.am    
  26 C26            5.1311    11.1608     2.6808 C.2     
  27 N27            5.5162    11.7202     3.8450 N.am    
  28 O28            5.9133    10.4880     2.0433 O.2     
  29 C29            2.8520    11.8615    -0.0243 C.2     
  30 O30            2.2054    12.7462     0.4954 O.2     
  31 C31            2.7499    11.6120    -1.5070 C.3     
  32 N32            1.5341    12.2875    -2.0159 N.am    
  33 C33            3.9850    12.1790    -2.2097 C.3     
  34 C34            0.4833    11.4630    -2.3030 C.2     
  35 O35            0.5775    10.2641    -2.1455 O.2     
  36 C36           -0.7954    12.0714    -2.8188 C.3     
  37 N37           -1.9205    11.1786    -2.4764 N.am    
  38 C38           -1.0107    13.4396    -2.1688 C.3     
  39 C39           -3.0270    11.7687    -1.9465 C.2     
  40 O40           -3.0595    12.9681    -1.7695 O.2     
  41 C41           -4.2111    10.9101    -1.5834 C.3     
  42 C42            3.9392    11.8208    -3.6729 C.2     
  43 C43            3.2403    12.5573    -4.7288 C.ar    
  44 C44            3.4811    11.8501    -5.9207 C.ar    
  45 N45            4.2685    10.7675    -5.5986 N.pl3   
  46 C46            4.5360    10.7697    -4.2567 C.2     
  47 C47            2.4608    13.7155    -4.7513 C.ar    
  48 C48            1.9352    14.1565    -5.9327 C.ar    
  49 C49            2.1695    13.4618    -7.1117 C.ar    
  50 C50            2.9363    12.3175    -7.1124 C.ar    
  51 N51           -4.7993    11.4209    -0.3242 N.am    
  52 C52           -3.7547     9.4630    -1.3868 C.3     
  53 C53           -4.9514     8.5938    -1.0979 C.ar    
  54 C54           -5.9835     8.5127    -2.0140 C.ar    
  55 C55           -7.0812     7.7156    -1.7503 C.ar    
  56 C56           -7.1470     6.9980    -0.5680 C.ar    
  57 C57           -6.1126     7.0800     0.3488 C.ar    
  58 C58           -5.0135     7.8737     0.0806 C.ar    
  59 C59           -4.5123    10.4049     4.3646 C.2     
  60 O60           -5.7104    10.2713     4.4968 O.2     
  61 C61           -1.0224    13.2850    -0.6467 C.3     
  62 C62           -1.3817    14.6247    -0.0008 C.3     
  63 N63           -1.3929    14.4766     1.4567 N.pl3   
  64 C64           -1.6914    15.5554     2.2550 C.2     
  65 N65           -1.9795    16.7732     1.6855 N.pl3   
  66 N66           -1.7014    15.4237     3.5517 N.2     
  67 N67           -3.9953    10.8835     3.1998 N.am    
  68 C68           -4.9627    11.2214     2.1367 C.3     
  69 C69           -4.4056    10.7707     0.8110 C.2     
  70 O70           -3.6219     9.8469     0.7528 O.2     
  71 O71           -0.5751     9.5710     4.8983 O.2     
  72 C72           -5.1880    12.7345     2.1104 C.3     
  73 F73           -8.2197     6.2187    -0.3090 F       
  74 C74           -5.8536    13.1737     3.4162 C.3     
  75 S75           -6.1207    14.9677     3.3851 S.o2    
  76 O76           -7.0625    15.2675     2.3641 O.2     
  77 C77           -6.9024    15.2581     4.9960 C.3     
  78 O78           -4.8551    15.6137     3.3730 O.2     
  79 H79           -1.5009     5.4620     9.6399 H       
  80 H80           -2.3226     3.9812     9.0919 H       
  81 H81           -0.6388     4.2957     8.6080 H       
  82 H82           -0.2558     5.9253     6.8903 H       
  83 H83           -0.8278     7.0717     4.9550 H       
  84 H84           -3.3165     5.3356     5.2728 H       
  85 H85           -2.9399     6.3071     3.8296 H       
  86 H86           -0.8152     5.0606     3.5451 H       
  87 H87           -1.1919     4.0892     4.9883 H       
  88 H88           -3.2528     3.2560     3.8895 H       
  89 H89           -2.8761     4.2274     2.4464 H       
  90 H90           -0.6512     2.5847     3.0190 H       
  91 H91           -4.0246     2.3602     1.9874 H       
  92 H92           -3.8313     0.9528     1.0904 H       
  93 H93           -1.7345    -0.0327     0.9743 H       
  94 H94           -2.3535     8.8785     4.1982 H       
  95 H95           -4.1523     9.7775     6.3725 H       
  96 H96           -2.2770    11.6510     4.8780 H       
  97 H97           -3.2550    12.0025     6.3230 H       
  98 H98           -1.1865    11.6196     7.3157 H       
  99 H99           -1.8531     9.9694     7.3397 H       
 100 H100           1.0783    11.3226     6.8816 H       
 101 H101           2.8970    10.1613     5.7969 H       
 102 H102           1.6844     9.2187     4.8914 H       
 103 H103           1.1212    11.5146     3.7500 H       
 104 H104           2.7211    12.0139     4.3498 H       
 105 H105           3.3286     9.5693     3.2816 H       
 106 H106           2.0075    10.0762     2.2019 H       
 107 H107           3.4248    12.4032     2.3477 H       
 108 H108           4.2086    10.3723     0.3274 H       
 109 H109           4.8906    12.2583     4.3548 H       
 110 H110           6.4189    11.5847     4.1730 H       
 111 H111           2.6786    10.5405    -1.6939 H       
 112 H112           1.4873    13.2487    -2.1373 H       
 113 H113           3.9988    13.2635    -2.1014 H       
 114 H114           4.8842    11.7575    -1.7604 H       
 115 H115          -0.7354    12.1846    -3.9012 H       
 116 H116          -1.8735    10.2206    -2.6213 H       
 117 H117          -0.2029    14.1112    -2.4596 H       
 118 H118          -1.9636    13.8530    -2.4994 H       
 119 H119          -4.9542    10.9566    -2.3795 H       
 120 H120           4.5890    10.1041    -6.2296 H       
 121 H121           5.1325    10.0308    -3.7421 H       
 122 H122           2.2737    14.2607    -3.8379 H       
 123 H123           1.3323    15.0524    -5.9496 H       
 124 H124           1.7469    13.8227    -8.0378 H       
 125 H125           3.1131    11.7843    -8.0348 H       
 126 H126          -5.4207    12.1655    -0.3065 H       
 127 H127          -3.2606     9.1116    -2.2926 H       
 128 H128          -3.0582     9.4123    -0.5499 H       
 129 H129          -5.9322     9.0728    -2.9360 H       
 130 H130          -7.8876     7.6527    -2.4660 H       
 131 H131          -6.1629     6.5207     1.2713 H       
 132 H132          -4.2066     7.9378     0.7955 H       
 133 H133          -1.7611    12.5353    -0.3633 H       
 134 H134          -0.0361    12.9703    -0.3059 H       
 135 H135          -0.6430    15.3744    -0.2841 H       
 136 H136          -2.3680    14.9394    -0.3416 H       
 137 H137          -1.1896    13.6175     1.8585 H       
 138 H138          -1.9721    16.8712     0.7205 H       
 139 H139          -2.1902    17.5343     2.2487 H       
 140 H140          -1.9121    16.1849     4.1149 H       
 141 H141          -3.0401    10.9971     3.0747 H       
 142 H142          -5.9077    10.7127     2.3276 H       
 143 H143          -4.2298    13.2426     2.0022 H       
 144 H144          -5.8325    12.9913     1.2697 H       
 145 H145          -6.8118    12.6655     3.5244 H       
 146 H146          -5.2091    12.9168     4.2568 H       
 147 H147          -6.2271    14.9399     5.7902 H       
 148 H148          -7.1202    16.3203     5.1080 H       
 149 H149          -7.8298    14.6886     5.0578 H       
@<TRIPOS>BOND
   1    1    2 1
   2    1    3 am
   3    1    4 2
   4    2   79 1
   5    2   80 1
   6    2   81 1
   7    3    5 1
   8    3   82 1
   9    5    6 1
  10    5    7 1
  11    5   83 1
  12    6    8 1
  13    6   84 1
  14    6   85 1
  15    7   14 2
  16    7   15 am
  17    8    9 1
  18    8   86 1
  19    8   87 1
  20    9   10 1
  21    9   88 1
  22    9   89 1
  23   10   11 1
  24   10   90 1
  25   11   12 1
  26   11   13 2
  27   12   91 1
  28   12   92 1
  29   13   93 1
  30   15   16 1
  31   15   94 1
  32   16   17 1
  33   16   59 1
  34   16   95 1
  35   17   18 1
  36   17   96 1
  37   17   97 1
  38   18   19 1
  39   18   98 1
  40   18   99 1
  41   19   20 am
  42   19   71 2
  43   20   21 1
  44   20  100 1
  45   21   22 1
  46   21  101 1
  47   21  102 1
  48   22   23 1
  49   22  103 1
  50   22  104 1
  51   23   24 1
  52   23  105 1
  53   23  106 1
  54   24   25 1
  55   24   26 1
  56   24  107 1
  57   25   29 am
  58   25  108 1
  59   26   27 am
  60   26   28 2
  61   27  109 1
  62   27  110 1
  63   29   30 2
  64   29   31 1
  65   31   32 1
  66   31   33 1
  67   31  111 1
  68   32   34 am
  69   32  112 1
  70   33   42 1
  71   33  113 1
  72   33  114 1
  73   34   35 2
  74   34   36 1
  75   36   37 1
  76   36   38 1
  77   36  115 1
  78   37   39 am
  79   37  116 1
  80   38   61 1
  81   38  117 1
  82   38  118 1
  83   39   40 2
  84   39   41 1
  85   41   51 1
  86   41   52 1
  87   41  119 1
  88   42   43 1
  89   42   46 2
  90   43   44 ar
  91   43   47 ar
  92   44   45 1
  93   44   50 ar
  94   45   46 1
  95   45  120 1
  96   46  121 1
  97   47   48 ar
  98   47  122 1
  99   48   49 ar
 100   48  123 1
 101   49   50 ar
 102   49  124 1
 103   50  125 1
 104   51   69 am
 105   51  126 1
 106   52   53 1
 107   52  127 1
 108   52  128 1
 109   53   54 ar
 110   53   58 ar
 111   54   55 ar
 112   54  129 1
 113   55   56 ar
 114   55  130 1
 115   56   57 ar
 116   56   73 1
 117   57   58 ar
 118   57  131 1
 119   58  132 1
 120   59   60 2
 121   59   67 am
 122   61   62 1
 123   61  133 1
 124   61  134 1
 125   62   63 1
 126   62  135 1
 127   62  136 1
 128   63   64 1
 129   63  137 1
 130   64   65 1
 131   64   66 2
 132   65  138 1
 133   65  139 1
 134   66  140 1
 135   67   68 1
 136   67  141 1
 137   68   69 1
 138   68   72 1
 139   68  142 1
 140   69   70 2
 141   72   74 1
 142   72  143 1
 143   72  144 1
 144   74   75 1
 145   74  145 1
 146   74  146 1
 147   75   76 2
 148   75   77 1
 149   75   78 2
 150   77  147 1
 151   77  148 1
 152   77  149 1

#	End of record

