#	Name: ASD02030102
#	Creating user name:	WinNT
#	Creation time:	15. 06. 2019 20:14

#	Modifying user name:	WinNT
#	Modification time:	15. 06. 2019 20:14

#	Program:	/corina/corina34_cracker 3.40 0067  02.08.2006

@<TRIPOS>MOLECULE
ASD02030102
  55   59    0    0    0
SMALL
NO_CHARGES


@<TRIPOS>ATOM
   1 N1            -0.0707     1.2254     0.4109 N.am    
   2 C2            -0.3140    -0.2239     0.4280 C.3     
   3 C3            -1.3608    -0.5325     1.5056 C.3     
   4 N4            -2.5024     0.3752     1.3249 N.am    
   5 C5            -2.2592     1.8245     1.3078 C.3     
   6 C6            -1.2131     2.1332     0.2358 C.3     
   7 C7             1.1769     1.7133     0.5587 C.2     
   8 C8             2.2966     0.7986     0.8666 C.2     
   9 N9             3.5298     1.1548     1.1552 N.2     
  10 N10            2.2329    -0.5450     0.9068 N.2     
  11 C11            3.4277    -0.9821     1.2136 C.2     
  12 N12            4.2283     0.0927     1.3659 N.pl3   
  13 O13            1.3813     2.9056     0.4389 O.2     
  14 C14           -3.7500    -0.1127     1.1771 C.2     
  15 C15           -3.9660    -1.5640     1.0902 C.2     
  16 O16           -4.6973     0.6480     1.1156 O.2     
  17 C17           -0.7451     3.5830     0.3775 C.3     
  18 C18           -1.8213     1.9196    -1.1518 C.3     
  19 C19            5.5896     0.0598     1.6970 C.ar    
  20 C20            6.3035     1.2440     1.8241 C.ar    
  21 C21            7.6450     1.2083     2.1505 C.ar    
  22 C22            8.2775    -0.0052     2.3501 C.ar    
  23 C23            7.5693    -1.1862     2.2241 C.ar    
  24 C24            6.2260    -1.1568     1.9041 C.ar    
  25 C25           -5.1533    -2.1621     0.8129 C.2     
  26 C26           -4.8955    -3.6016     0.8305 C.ar    
  27 C27           -3.5270    -3.7403     1.1276 C.ar    
  28 O28           -3.0132    -2.5029     1.2682 O.3     
  29 C29           -5.6860    -4.7351     0.6254 C.ar    
  30 C30           -5.1246    -5.9774     0.7147 C.ar    
  31 C31           -3.7750    -6.1200     1.0081 C.ar    
  32 C32           -2.9782    -5.0148     1.2136 C.ar    
  33 H33           -0.6857    -0.5440    -0.5454 H       
  34 H34            0.6137    -0.7478     0.6584 H       
  35 H35           -1.6951    -1.5651     1.4058 H       
  36 H36           -0.9251    -0.3802     2.4931 H       
  37 H37           -3.1868     2.3484     1.0774 H       
  38 H38           -1.8874     2.1446     2.2812 H       
  39 H39            3.7190    -2.0158     1.3273 H       
  40 H40           -0.2083     3.7012     1.3187 H       
  41 H41           -0.0839     3.8340    -0.4519 H       
  42 H42           -1.6098     4.2466     0.3665 H       
  43 H43           -2.6771     2.5825    -1.2794 H       
  44 H44           -1.0740     2.1402    -1.9139 H       
  45 H45           -2.1462     0.8838    -1.2505 H       
  46 H46            5.8103     2.1919     1.6677 H       
  47 H47            8.2008     2.1290     2.2495 H       
  48 H48            9.3268    -0.0305     2.6044 H       
  49 H49            8.0659    -2.1323     2.3806 H       
  50 H50            5.6733    -2.0795     1.8062 H       
  51 H51           -6.0968    -1.6737     0.6187 H       
  52 H52           -6.7365    -4.6297     0.3977 H       
  53 H53           -5.7347    -6.8544     0.5564 H       
  54 H54           -3.3450    -7.1084     1.0758 H       
  55 H55           -1.9298    -5.1384     1.4415 H       
@<TRIPOS>BOND
   1    1    2 1
   2    1    7 am
   3    1    6 1
   4    2    3 1
   5    2   33 1
   6    2   34 1
   7    3    4 1
   8    3   35 1
   9    3   36 1
  10    4    5 1
  11    4   14 am
  12    5    6 1
  13    5   37 1
  14    5   38 1
  15    6   17 1
  16    6   18 1
  17    7    8 1
  18    7   13 2
  19    8    9 2
  20    8   10 1
  21    9   12 1
  22   10   11 2
  23   11   12 1
  24   11   39 1
  25   12   19 1
  26   14   15 1
  27   14   16 2
  28   15   25 2
  29   15   28 1
  30   17   40 1
  31   17   41 1
  32   17   42 1
  33   18   43 1
  34   18   44 1
  35   18   45 1
  36   19   20 ar
  37   19   24 ar
  38   20   21 ar
  39   20   46 1
  40   21   22 ar
  41   21   47 1
  42   22   23 ar
  43   22   48 1
  44   23   24 ar
  45   23   49 1
  46   24   50 1
  47   25   26 1
  48   25   51 1
  49   26   27 ar
  50   26   29 ar
  51   27   28 1
  52   27   32 ar
  53   29   30 ar
  54   29   52 1
  55   30   31 ar
  56   30   53 1
  57   31   32 ar
  58   31   54 1
  59   32   55 1

#	End of record

