#	Name: ASD02448175
#	Creating user name:	WinNT
#	Creation time:	15. 06. 2019 20:22

#	Modifying user name:	WinNT
#	Modification time:	15. 06. 2019 20:22

#	Program:	/corina/corina34_cracker 3.40 0067  02.08.2006

@<TRIPOS>MOLECULE
ASD02448175
  66   70    0    0    0
SMALL
NO_CHARGES


@<TRIPOS>ATOM
   1 C1             0.3040     1.6670    -0.1739 C.ar    
   2 C2             0.2136     0.2906    -0.1190 C.ar    
   3 C3             1.3677    -0.4804    -0.0880 C.ar    
   4 C4             2.6132     0.1325    -0.1118 C.ar    
   5 C5             2.7045     1.5088    -0.1667 C.ar    
   6 C6             1.5499     2.2806    -0.1982 C.ar    
   7 N7             1.6419     3.6745    -0.2542 N.am    
   8 C8             0.6537     4.6237    -0.7828 C.3     
   9 C9             1.1335     6.0338    -0.6581 C.2     
  10 N10            2.3455     6.1674    -0.1013 N.am    
  11 S11            2.8963     4.6412     0.2706 S.o2    
  12 O12            0.4776     6.9830    -1.0318 O.2     
  13 O13            2.9437     4.5463     1.6877 O.2     
  14 O14            4.0039     4.3765    -0.5793 O.2     
  15 N15            1.2754    -1.8798    -0.0322 N.pl3   
  16 C16            0.6052    -2.6119     0.9106 C.2     
  17 C17            1.8296    -2.7591    -0.9071 C.2     
  18 N18            1.5256    -3.9716    -0.5360 N.2     
  19 C19            0.7717    -3.9195     0.5808 C.2     
  20 C20            0.2217    -5.0833     1.3184 C.ar    
  21 C21            0.4705    -6.3793     0.8667 C.ar    
  22 C22           -0.5404    -4.8856     2.4679 C.ar    
  23 C23           -1.0500    -5.9716     3.1507 C.ar    
  24 C24           -0.8054    -7.2558     2.6956 C.ar    
  25 C25           -0.0441    -7.4588     1.5573 C.ar    
  26 Cl26          -1.4491    -8.6169     3.5598 Cl      
  27 Cl27           1.4246    -6.6348    -0.5609 Cl      
  28 C28            1.7809    -2.3548    -3.3341 C.ar    
  29 C29            1.0814    -1.2022    -3.6441 C.ar    
  30 C30            0.2796    -1.1589    -4.7661 C.ar    
  31 C31            0.1753    -2.2810    -5.5889 C.ar    
  32 C32            0.8835    -3.4405    -5.2707 C.ar    
  33 C33            1.6817    -3.4707    -4.1458 C.ar    
  34 C34           -0.6555    -2.2430    -6.7547 C.1     
  35 C35            2.6597    -2.3929    -2.1104 C.3     
  36 C36           -1.3365    -2.2119    -7.7105 C.1     
  37 C37           -2.1904    -2.1729    -8.9089 C.3     
  38 C38           -2.1252    -3.5229    -9.6258 C.3     
  39 C39           -3.0127    -3.4823   -10.8714 C.3     
  40 C40           -2.9475    -4.8324   -11.5883 C.3     
  41 H41           -0.5939     2.2664    -0.2025 H       
  42 H42           -0.7551    -0.1866    -0.0997 H       
  43 H43            3.5108    -0.4676    -0.0870 H       
  44 H44            3.6734     1.9855    -0.1849 H       
  45 H45            0.4709     4.4005    -1.8340 H       
  46 H46           -0.2788     4.5136    -0.2291 H       
  47 H47            2.8146     7.0012     0.0585 H       
  48 H48            0.0515    -2.2252     1.7533 H       
  49 H49           -0.7318    -3.8843     2.8243 H       
  50 H50           -1.6406    -5.8190     4.0419 H       
  51 H51            0.1439    -8.4627     1.2063 H       
  52 H52            1.1628    -0.3345    -3.0062 H       
  53 H53           -0.2663    -0.2587    -5.0068 H       
  54 H54            0.8069    -4.3122    -5.9036 H       
  55 H55            2.2304    -4.3675    -3.8984 H       
  56 H56            3.1104    -1.4125    -1.9561 H       
  57 H57            3.4448    -3.1359    -2.2499 H       
  58 H58           -3.2197    -1.9669    -8.6150 H       
  59 H59           -1.8400    -1.3881    -9.5793 H       
  60 H60           -1.0959    -3.7289    -9.9196 H       
  61 H61           -2.4756    -4.3076    -8.9554 H       
  62 H62           -4.0420    -3.2763   -10.5776 H       
  63 H63           -2.6623    -2.6976   -11.5418 H       
  64 H64           -3.5798    -4.8034   -12.4757 H       
  65 H65           -1.9182    -5.0383   -11.8822 H       
  66 H66           -3.2979    -5.6171   -10.9179 H       
@<TRIPOS>BOND
   1    1    2 ar
   2    1    6 ar
   3    1   41 1
   4    2    3 ar
   5    2   42 1
   6    3    4 ar
   7    3   15 1
   8    4    5 ar
   9    4   43 1
  10    5    6 ar
  11    5   44 1
  12    6    7 1
  13    7    8 1
  14    7   11 am
  15    8    9 1
  16    8   45 1
  17    8   46 1
  18    9   10 am
  19    9   12 2
  20   10   11 am
  21   10   47 1
  22   11   13 2
  23   11   14 2
  24   15   16 1
  25   15   17 1
  26   16   19 2
  27   16   48 1
  28   17   18 2
  29   17   35 1
  30   18   19 1
  31   19   20 1
  32   20   21 ar
  33   20   22 ar
  34   21   27 1
  35   21   25 ar
  36   22   23 ar
  37   22   49 1
  38   23   24 ar
  39   23   50 1
  40   24   25 ar
  41   24   26 1
  42   25   51 1
  43   28   29 ar
  44   28   33 ar
  45   28   35 1
  46   29   30 ar
  47   29   52 1
  48   30   31 ar
  49   30   53 1
  50   31   32 ar
  51   31   34 1
  52   32   33 ar
  53   32   54 1
  54   33   55 1
  55   34   36 3
  56   35   56 1
  57   35   57 1
  58   36   37 1
  59   37   38 1
  60   37   58 1
  61   37   59 1
  62   38   39 1
  63   38   60 1
  64   38   61 1
  65   39   40 1
  66   39   62 1
  67   39   63 1
  68   40   64 1
  69   40   65 1
  70   40   66 1

#	End of record

