#	Name: ASD01908017
#	Creating user name:	WinNT
#	Creation time:	15. 06. 2019 19:54

#	Modifying user name:	WinNT
#	Modification time:	15. 06. 2019 19:54

#	Program:	/corina/corina34_cracker 3.40 0067  02.08.2006

@<TRIPOS>MOLECULE
ASD01908017
  46   48    0    0    0
SMALL
NO_CHARGES


@<TRIPOS>ATOM
   1 N1            -0.0169     1.3952     0.0097 N.pl3   
   2 N2             0.0021    -0.0041     0.0020 N.2     
   3 C3             1.2420    -0.4088    -0.0120 C.2     
   4 C4             2.0738     0.7314    -0.0138 C.2     
   5 C5             1.2501     1.8374    -0.0000 C.2     
   6 O6             4.5237    -0.3938    -0.0428 O.3     
   7 B7             3.6437     0.7392    -0.0283 Du      
   8 O8             4.5125     1.8809    -0.0305 O.3     
   9 C9             5.5814     1.5248    -0.9324 C.3     
  10 C10            5.5890    -0.0174    -0.9407 C.3     
  11 C11            6.9300    -0.5467    -0.4284 C.3     
  12 C12            5.3097    -0.5443    -2.3497 C.3     
  13 C13            5.2968     2.0641    -2.3356 C.3     
  14 C14            6.9172     2.0617    -0.4143 C.3     
  15 C15           -1.2171     2.2353     0.0202 C.3     
  16 C16           -2.1020     1.8616    -1.1410 C.ar    
  17 C17           -3.0665     0.8830    -0.9867 C.ar    
  18 C18           -3.8789     0.5386    -2.0496 C.ar    
  19 C19           -3.7264     1.1757    -3.2726 C.ar    
  20 C20           -2.7579     2.1573    -3.4248 C.ar    
  21 C21           -1.9518     2.5020    -2.3572 C.ar    
  22 O22           -4.5241     0.8384    -4.3198 O.3     
  23 C23           -4.3108     1.5357    -5.5488 C.3     
  24 H24            1.5741    -1.4365    -0.0201 H       
  25 H25            1.5666     2.8700     0.0022 H       
  26 H26            6.8986    -1.6354    -0.3857 H       
  27 H27            7.7263    -0.2324    -1.1031 H       
  28 H28            7.1205    -0.1493     0.5685 H       
  29 H29            4.3597    -0.1452    -2.7051 H       
  30 H30            6.1095    -0.2300    -3.0203 H       
  31 H31            5.2610    -1.6330    -2.3275 H       
  32 H32            5.2374     3.1520    -2.3016 H       
  33 H33            6.0996     1.7650    -3.0095 H       
  34 H34            4.3508     1.6596    -2.6954 H       
  35 H35            7.1116     1.6555     0.5783 H       
  36 H36            7.7165     1.7626    -1.0923 H       
  37 H37            6.8750     3.1496    -0.3598 H       
  38 H38           -1.7589     2.0831     0.9537 H       
  39 H39           -0.9281     3.2828    -0.0655 H       
  40 H40           -3.1845     0.3871    -0.0346 H       
  41 H41           -4.6319    -0.2261    -1.9288 H       
  42 H42           -2.6373     2.6546    -4.3758 H       
  43 H43           -1.2009     3.2694    -2.4738 H       
  44 H44           -4.4678     2.6030    -5.3929 H       
  45 H45           -3.2901     1.3648    -5.8911 H       
  46 H46           -5.0117     1.1713    -6.2997 H       
@<TRIPOS>BOND
   1    1    2 1
   2    1    5 1
   3    1   15 1
   4    2    3 2
   5    3    4 1
   6    3   24 1
   7    4    5 2
   8    4    7 1
   9    5   25 1
  10    6    7 1
  11    6   10 1
  12    7    8 1
  13    8    9 1
  14    9   10 1
  15    9   13 1
  16    9   14 1
  17   10   11 1
  18   10   12 1
  19   11   26 1
  20   11   27 1
  21   11   28 1
  22   12   29 1
  23   12   30 1
  24   12   31 1
  25   13   32 1
  26   13   33 1
  27   13   34 1
  28   14   35 1
  29   14   36 1
  30   14   37 1
  31   15   16 1
  32   15   38 1
  33   15   39 1
  34   16   17 ar
  35   16   21 ar
  36   17   18 ar
  37   17   40 1
  38   18   19 ar
  39   18   41 1
  40   19   20 ar
  41   19   22 1
  42   20   21 ar
  43   20   42 1
  44   21   43 1
  45   22   23 1
  46   23   44 1
  47   23   45 1
  48   23   46 1

#	End of record

