#	Name: ASD00311153
#	Creating user name:	WinNT
#	Creation time:	15. 06. 2019 18:34

#	Modifying user name:	WinNT
#	Modification time:	15. 06. 2019 18:34

#	Program:	/corina/corina34_cracker 3.40 0067  02.08.2006

@<TRIPOS>MOLECULE
ASD00311153
  35   38    0    0    0
SMALL
NO_CHARGES


@<TRIPOS>ATOM
   1 C1            -0.0167     1.3775     0.0096 C.2     
   2 C2             0.0021    -0.0041     0.0020 C.2     
   3 C3             1.2586    -0.6767    -0.0131 C.2     
   4 C4             2.4315     0.0671    -0.0199 C.2     
   5 C5             2.3575     1.4749    -0.0117 C.2     
   6 N6             1.1650     2.0901     0.0022 N.am    
   7 C7            -1.3435    -0.5754     0.0118 C.2     
   8 C8            -2.3233     0.3267     0.0260 C.2     
   9 S9            -1.6791     1.9565     0.0358 S.3     
  10 O10            3.3825     2.1371    -0.0175 O.2     
  11 C11           -1.2064    -2.8263     1.0870 C.ar    
  12 C12           -1.5961    -2.0355     0.0064 C.ar    
  13 C13           -2.2295    -2.6431    -1.0821 C.ar    
  14 C14           -2.4426    -4.0101    -1.0381 C.ar    
  15 C15           -2.0263    -4.7246     0.0704 C.ar    
  16 N16           -1.4306    -4.1241     1.0827 N.ar    
  17 C17            3.7476    -0.6123    -0.0352 C.ar    
  18 C18            4.5938    -0.4750    -1.1354 C.ar    
  19 C19            5.8187    -1.1100    -1.1435 C.ar    
  20 C20            6.2082    -1.8816    -0.0633 C.ar    
  21 C21            5.3731    -2.0220     1.0307 C.ar    
  22 C22            4.1481    -1.3873     1.0531 C.ar    
  23 O23            1.3083    -2.0292    -0.0204 O.3     
  24 Cl24          -4.0154    -0.0609     0.0401 Cl      
  25 H25            1.1328     3.0595     0.0077 H       
  26 H26           -0.7121    -2.3712     1.9326 H       
  27 H27           -2.5447    -2.0607    -1.9353 H       
  28 H28           -2.9292    -4.5134    -1.8605 H       
  29 H29           -2.1912    -5.7913     0.1077 H       
  30 H30            4.2906     0.1269    -1.9794 H       
  31 H31            6.4747    -1.0047    -1.9950 H       
  32 H32            7.1680    -2.3767    -0.0742 H       
  33 H33            5.6825    -2.6260     1.8709 H       
  34 H34            3.4991    -1.4937     1.9097 H       
  35 H35            2.2056    -2.3898    -0.0306 H       
@<TRIPOS>BOND
   1    1    2 2
   2    1    6 1
   3    1    9 1
   4    2    3 1
   5    2    7 1
   6    3    4 2
   7    3   23 1
   8    4    5 1
   9    4   17 1
  10    5    6 am
  11    5   10 2
  12    6   25 1
  13    7    8 2
  14    7   12 1
  15    8    9 1
  16    8   24 1
  17   11   12 ar
  18   11   16 ar
  19   11   26 1
  20   12   13 ar
  21   13   14 ar
  22   13   27 1
  23   14   15 ar
  24   14   28 1
  25   15   16 ar
  26   15   29 1
  27   17   18 ar
  28   17   22 ar
  29   18   19 ar
  30   18   30 1
  31   19   20 ar
  32   19   31 1
  33   20   21 ar
  34   20   32 1
  35   21   22 ar
  36   21   33 1
  37   22   34 1
  38   23   35 1

#	End of record

