#	Name: ASD01815927
#	Creating user name:	WinNT
#	Creation time:	15. 06. 2019 19:34

#	Modifying user name:	WinNT
#	Modification time:	15. 06. 2019 19:34

#	Program:	/corina/corina34_cracker 3.40 0067  02.08.2006

@<TRIPOS>MOLECULE
ASD01815927
  67   73    0    0    0
SMALL
NO_CHARGES


@<TRIPOS>ATOM
   1 C1            -0.5093     2.1094    -1.7101 C.ar    
   2 C2            -0.7258     0.7438    -1.7952 C.ar    
   3 C3             0.2967    -0.1483    -1.5377 C.ar    
   4 C4             1.5604     0.3205    -1.1887 C.ar    
   5 C5             1.7769     1.7053    -1.1032 C.ar    
   6 C6             0.7375     2.5954    -1.3653 C.ar    
   7 N7             2.5897    -0.5691    -0.9288 N.pl3   
   8 C8             3.8270    -0.1757    -0.5878 C.2     
   9 C9             4.1564     1.1521    -0.4731 C.2     
  10 C10            3.1231     2.1806    -0.7319 C.2     
  11 C11            5.3623     1.9011    -0.1337 C.2     
  12 N12            5.0251     3.2072    -0.1994 N.am    
  13 N13            3.6819     3.3440    -0.5588 N.2     
  14 C14            5.8969     4.2720     0.0562 C.ar    
  15 O15            6.4552     1.4399     0.1524 O.2     
  16 C16            2.3154    -2.0046    -1.0302 C.3     
  17 C17            2.5853    -2.4694    -2.4382 C.ar    
  18 C18            3.8733    -2.7942    -2.8226 C.ar    
  19 C19            4.1239    -3.2200    -4.1124 C.ar    
  20 C20            3.0809    -3.3222    -5.0231 C.ar    
  21 C21            1.7888    -2.9958    -4.6340 C.ar    
  22 C22            1.5437    -2.5755    -3.3414 C.ar    
  23 N23            3.3322    -3.7536    -6.3331 N.pl3   
  24 C24            2.4124    -3.8967    -7.3140 C.2     
  25 F25            0.9478     3.9274    -1.2831 F       
  26 F26            0.0703    -1.4774    -1.6243 F       
  27 C27            3.0564    -4.3317    -8.4218 C.2     
  28 C28            4.4142    -4.4589    -8.1088 C.2     
  29 N29            4.5814    -4.1070    -6.8594 N.2     
  30 C30            6.7300     4.7458    -0.9488 C.ar    
  31 C31            7.5892     5.7967    -0.6932 C.ar    
  32 C32            7.6207     6.3765     0.5617 C.ar    
  33 C33            6.7922     5.9069     1.5648 C.ar    
  34 C34            5.9265     4.8608     1.3141 C.ar    
  35 C35            5.0242     4.3498     2.4076 C.3     
  36 N36            5.3719     5.0050     3.6756 N.3     
  37 C37            4.2859     4.8644     4.6565 C.3     
  38 C38            4.6640     5.6104     5.9388 C.3     
  39 O39            5.9071     5.1026     6.4309 O.3     
  40 C40            6.9871     5.2242     5.5012 C.3     
  41 C41            6.6326     4.4742     4.2145 C.3     
  42 H42           -1.3163     2.7964    -1.9183 H       
  43 H43           -1.7036     0.3732    -2.0651 H       
  44 H44            4.5831    -0.9234    -0.3984 H       
  45 H45            2.9598    -2.5474    -0.3387 H       
  46 H46            1.2718    -2.1938    -0.7790 H       
  47 H47            4.6842    -2.7145    -2.1137 H       
  48 H48            5.1301    -3.4728    -4.4123 H       
  49 H49            0.9756    -3.0739    -5.3404 H       
  50 H50            0.5387    -2.3215    -3.0381 H       
  51 H51            1.3540    -3.6999    -7.2285 H       
  52 H52            2.6024    -4.5433    -9.3787 H       
  53 H53            5.1913    -4.7866    -8.7835 H       
  54 H54            6.7065     4.2929    -1.9289 H       
  55 H55            8.2374     6.1657    -1.4743 H       
  56 H56            8.2939     7.1976     0.7591 H       
  57 H57            6.8194     6.3617     2.5439 H       
  58 H58            3.9870     4.5720     2.1563 H       
  59 H59            5.1506     3.2719     2.5090 H       
  60 H60            3.3684     5.2868     4.2467 H       
  61 H61            4.1328     3.8088     4.8811 H       
  62 H62            4.7647     6.6744     5.7247 H       
  63 H63            3.8874     5.4614     6.6890 H       
  64 H64            7.1553     6.2769     5.2744 H       
  65 H65            7.8907     4.7958     5.9350 H       
  66 H66            6.5169     3.4124     4.4321 H       
  67 H67            7.4280     4.6118     3.4821 H       
@<TRIPOS>BOND
   1    1    2 ar
   2    1    6 ar
   3    1   42 1
   4    2    3 ar
   5    2   43 1
   6    3    4 ar
   7    3   26 1
   8    4    5 ar
   9    4    7 1
  10    5    6 ar
  11    5   10 1
  12    6   25 1
  13    7    8 1
  14    7   16 1
  15    8    9 2
  16    8   44 1
  17    9   10 1
  18    9   11 1
  19   10   13 2
  20   11   12 am
  21   11   15 2
  22   12   13 1
  23   12   14 1
  24   14   30 ar
  25   14   34 ar
  26   16   17 1
  27   16   45 1
  28   16   46 1
  29   17   18 ar
  30   17   22 ar
  31   18   19 ar
  32   18   47 1
  33   19   20 ar
  34   19   48 1
  35   20   21 ar
  36   20   23 1
  37   21   22 ar
  38   21   49 1
  39   22   50 1
  40   23   24 1
  41   23   29 1
  42   24   27 2
  43   24   51 1
  44   27   28 1
  45   27   52 1
  46   28   29 2
  47   28   53 1
  48   30   31 ar
  49   30   54 1
  50   31   32 ar
  51   31   55 1
  52   32   33 ar
  53   32   56 1
  54   33   34 ar
  55   33   57 1
  56   34   35 1
  57   35   36 1
  58   35   58 1
  59   35   59 1
  60   36   37 1
  61   36   41 1
  62   37   38 1
  63   37   60 1
  64   37   61 1
  65   38   39 1
  66   38   62 1
  67   38   63 1
  68   39   40 1
  69   40   41 1
  70   40   64 1
  71   40   65 1
  72   41   66 1
  73   41   67 1

#	End of record

