#	Name: ASD03240421
#	Creating user name:	WinNT
#	Creation time:	15. 06. 2019 20:34

#	Modifying user name:	WinNT
#	Modification time:	15. 06. 2019 20:34

#	Program:	/corina/corina34_cracker 3.40 0067  02.08.2006

@<TRIPOS>MOLECULE
ASD03240421
  44   47    0    0    0
SMALL
NO_CHARGES


@<TRIPOS>ATOM
   1 C1            -0.0653     1.4690    -0.0590 C.ar    
   2 C2            -0.9666     1.8073    -1.0508 C.ar    
   3 C3             2.5142     0.3923    -1.2826 C.ar    
   4 C4             2.1166     1.7125    -1.1725 C.ar    
   5 C5             1.2783     2.1488     0.0014 C.3     
   6 C6             3.2820    -0.0125    -2.3558 C.ar    
   7 C7             3.6564     0.9111    -3.3290 C.ar    
   8 C8             3.2536     2.2396    -3.2130 C.ar    
   9 C9             2.4859     2.6338    -2.1358 C.ar    
  10 C10            4.4826     0.4814    -4.4853 C.2     
  11 C11           -2.1998     1.1848    -1.1070 C.ar    
  12 C12           -2.5321     0.2229    -0.1705 C.ar    
  13 C13           -1.6291    -0.1160     0.8233 C.ar    
  14 C14           -0.3980     0.5115     0.8812 C.ar    
  15 C15            4.9179     1.2766    -5.5050 C.2     
  16 N16            5.6346     0.5048    -6.3467 N.pl3   
  17 N17            5.6464    -0.8006    -5.8406 N.2     
  18 C18            4.9647    -0.8199    -4.7260 C.2     
  19 Cl19          -4.0807    -0.5586    -0.2402 Cl      
  20 C20            1.0860     3.6672    -0.0433 C.3     
  21 C21            0.2861     4.1115     1.1834 C.3     
  22 N22            1.0057     3.7269     2.4043 N.3     
  23 C23            1.1606     2.2693     2.4925 C.3     
  24 C24            1.9860     1.7686     1.3049 C.3     
  25 Cl25          -2.0450    -1.3227     1.9999 Cl      
  26 H26           -0.7075     2.5586    -1.7821 H       
  27 H27            2.2272    -0.3220    -0.5252 H       
  28 H28            3.5923    -1.0435    -2.4406 H       
  29 H29            3.5411     2.9597    -3.9648 H       
  30 H30            2.1727     3.6634    -2.0451 H       
  31 H31           -2.9036     1.4499    -1.8820 H       
  32 H32            0.3067     0.2477     1.6559 H       
  33 H33            4.7236     2.3330    -5.6175 H       
  34 H34            6.0672     0.8025    -7.1623 H       
  35 H35            4.7945    -1.6846    -4.1017 H       
  36 H36            2.0595     4.1575    -0.0400 H       
  37 H37            0.5441     3.9389    -0.9491 H       
  38 H38            0.1597     5.1939     1.1620 H       
  39 H39           -0.6925     3.6315     1.1722 H       
  40 H40            1.9008     4.1895     2.4573 H       
  41 H41            1.6695     2.0137     3.4219 H       
  42 H42            0.1780     1.7979     2.4751 H       
  43 H43            2.0870     0.6848     1.3631 H       
  44 H44            2.9739     2.2285     1.3286 H       
@<TRIPOS>BOND
   1    1    2 ar
   2    1    5 1
   3    1   14 ar
   4    2   11 ar
   5    2   26 1
   6    3    4 ar
   7    3    6 ar
   8    3   27 1
   9    4    5 1
  10    4    9 ar
  11    5   20 1
  12    5   24 1
  13    6    7 ar
  14    6   28 1
  15    7    8 ar
  16    7   10 1
  17    8    9 ar
  18    8   29 1
  19    9   30 1
  20   10   15 2
  21   10   18 1
  22   11   12 ar
  23   11   31 1
  24   12   13 ar
  25   12   19 1
  26   13   14 ar
  27   13   25 1
  28   14   32 1
  29   15   16 1
  30   15   33 1
  31   16   17 1
  32   16   34 1
  33   17   18 2
  34   18   35 1
  35   20   21 1
  36   20   36 1
  37   20   37 1
  38   21   22 1
  39   21   38 1
  40   21   39 1
  41   22   23 1
  42   22   40 1
  43   23   24 1
  44   23   41 1
  45   23   42 1
  46   24   43 1
  47   24   44 1

#	End of record

