#	Name: ASD01510045
#	Creating user name:	WinNT
#	Creation time:	15. 06. 2019 19:21

#	Modifying user name:	WinNT
#	Modification time:	15. 06. 2019 19:21

#	Program:	/corina/corina34_cracker 3.40 0067  02.08.2006

@<TRIPOS>MOLECULE
ASD01510045
  34   35    0    0    0
SMALL
NO_CHARGES


@<TRIPOS>ATOM
   1 C1             0.0054     1.4075     0.0141 C.3     
   2 O2             0.0194    -0.0215     0.0078 O.3     
   3 C3             0.6372    -0.6358     1.0473 C.ar    
   4 N4             1.1975     0.0797     2.0170 N.ar    
   5 C5             1.8004    -0.5100     3.0326 C.ar    
   6 F6             2.3570     0.2539     3.9979 F       
   7 N7             1.8750    -1.8241     3.1329 N.ar    
   8 C8             1.3400    -2.6107     2.2050 C.ar    
   9 C9             0.6888    -2.0281     1.1175 C.ar    
  10 S10           -0.0379    -3.0244    -0.1410 S.3     
  11 C11           -1.6583    -3.2214     0.5223 C.ar    
  12 N12           -1.9558    -2.6521     1.6818 N.ar    
  13 C13           -3.1630    -2.7781     2.2116 C.ar    
  14 C14           -4.1218    -3.5146     1.5418 C.ar    
  15 C15           -3.7793    -4.1023     0.3230 C.ar    
  16 N16           -2.5514    -3.9308    -0.1530 N.ar    
  17 N17           -4.7119    -4.8517    -0.3853 N.am    
  18 C18           -4.4051    -5.3278    -1.6083 C.2     
  19 O19           -3.3533    -5.0253    -2.1304 O.2     
  20 C20           -5.3693    -6.2361    -2.3270 C.3     
  21 O21            1.4218    -3.9601     2.3160 O.3     
  22 C22            2.1009    -4.4767     3.4623 C.3     
  23 H23            1.0294     1.7809     0.0083 H       
  24 H24           -0.5183     1.7696    -0.8706 H       
  25 H25           -0.5055     1.7619     0.9093 H       
  26 H26           -3.3957    -2.3108     3.1570 H       
  27 H27           -5.1137    -3.6330     1.9524 H       
  28 H28           -5.5833    -5.0320     0.0008 H       
  29 H29           -6.0509    -5.6373    -2.9312 H       
  30 H30           -4.8146    -6.9172    -2.9722 H       
  31 H31           -5.9399    -6.8106    -1.5972 H       
  32 H32            3.1307    -4.1196     3.4660 H       
  33 H33            1.5957    -4.1385     4.3670 H       
  34 H34            2.0942    -5.5662     3.4281 H       
@<TRIPOS>BOND
   1    1    2 1
   2    1   23 1
   3    1   24 1
   4    1   25 1
   5    2    3 1
   6    3    4 ar
   7    3    9 ar
   8    4    5 ar
   9    5    6 1
  10    5    7 ar
  11    7    8 ar
  12    8    9 ar
  13    8   21 1
  14    9   10 1
  15   10   11 1
  16   11   12 ar
  17   11   16 ar
  18   12   13 ar
  19   13   14 ar
  20   13   26 1
  21   14   15 ar
  22   14   27 1
  23   15   16 ar
  24   15   17 1
  25   17   18 am
  26   17   28 1
  27   18   19 2
  28   18   20 1
  29   20   29 1
  30   20   30 1
  31   20   31 1
  32   21   22 1
  33   22   32 1
  34   22   33 1
  35   22   34 1

#	End of record

