#	Name: ASD00431384
#	Creating user name:	WinNT
#	Creation time:	15. 06. 2019 18:35

#	Modifying user name:	WinNT
#	Modification time:	15. 06. 2019 18:35

#	Program:	/corina/corina34_cracker 3.40 0067  02.08.2006

@<TRIPOS>MOLECULE
ASD00431384
  55   59    0    0    0
SMALL
NO_CHARGES


@<TRIPOS>ATOM
   1 C1            -0.2221     1.5954     0.1732 C.2     
   2 N2            -0.1777     0.2512     0.1424 N.am    
   3 C3             1.0927    -0.1905     0.1182 C.2     
   4 C4             1.9980     0.9778     0.1345 C.ar    
   5 C5             3.3746     1.1358     0.1232 C.ar    
   6 C6             3.9203     2.4097     0.1462 C.ar    
   7 C7             3.1011     3.5225     0.1805 C.ar    
   8 C8             1.7223     3.3799     0.1923 C.ar    
   9 C9             1.1626     2.1125     0.1695 C.ar    
  10 O10           -1.2310     2.2710     0.1952 O.2     
  11 O11            1.4380    -1.3545     0.0887 O.2     
  12 C12           -1.3576    -0.6172     0.1364 C.3     
  13 C13           -1.3552    -1.4720    -1.1326 C.3     
  14 O14           -0.2491    -2.1204     1.8661 O.3     
  15 N15           -0.5279    -2.7796     2.8406 N.2     
  16 C16           -1.8111    -2.7129     3.1115 C.2     
  17 C17           -2.3799    -1.8637     2.1177 C.2     
  18 C18           -1.3269    -1.5146     1.3466 C.2     
  19 S19           -4.2461    -3.2759     4.5599 S.3     
  20 C20           -4.0554    -4.3091     5.9083 C.2     
  21 N21           -2.8125    -4.6597     6.0355 N.2     
  22 C22           -1.9621    -4.1842     5.1518 C.2     
  23 C23           -2.5207    -3.3818     4.2197 C.2     
  24 O24           -5.0586    -4.7053     6.7272 O.3     
  25 C25           -4.7694    -5.6116     7.6986 C.ar    
  26 C26           -3.9124    -5.2687     8.7343 C.ar    
  27 C27           -3.6191    -6.1892     9.7213 C.ar    
  28 C28           -4.1812    -7.4565     9.6770 C.ar    
  29 C29           -5.0377    -7.7996     8.6412 C.ar    
  30 C30           -5.3357    -6.8773     7.6572 C.ar    
  31 O31           -3.8923    -8.3627    10.6487 O.3     
  32 C32           -2.8995    -7.9918    11.6073 C.3     
  33 C33           -3.5779    -7.3701    12.8297 C.3     
  34 C34           -2.1152    -9.2336    12.0357 C.3     
  35 Cl35          -0.2666    -4.5556     5.1813 Cl      
  36 H36            4.0196     0.2699     0.0968 H       
  37 H37            4.9931     2.5338     0.1378 H       
  38 H38            3.5382     4.5099     0.1986 H       
  39 H39            1.0871     4.2529     0.2194 H       
  40 H40           -2.2593    -0.0052     0.1606 H       
  41 H41           -1.3774    -0.8228    -2.0080 H       
  42 H42           -0.4536    -2.0839    -1.1568 H       
  43 H43           -2.2331    -2.1181    -1.1371 H       
  44 H44           -3.4128    -1.5684     2.0068 H       
  45 H45           -3.4744    -4.2821     8.7686 H       
  46 H46           -2.9517    -5.9224    10.5274 H       
  47 H47           -5.4751    -8.7865     8.6067 H       
  48 H48           -6.0060    -7.1430     6.8532 H       
  49 H49           -2.2177    -7.2670    11.1623 H       
  50 H50           -2.8206    -7.0872    13.5608 H       
  51 H51           -4.1367    -6.4854    12.5244 H       
  52 H52           -4.2597    -8.0948    13.2746 H       
  53 H53           -1.6319    -9.6765    11.1649 H       
  54 H54           -1.3579    -8.9507    12.7669 H       
  55 H55           -2.7970    -9.9583    12.4807 H       
@<TRIPOS>BOND
   1    1    2 am
   2    1    9 1
   3    1   10 2
   4    2    3 am
   5    2   12 1
   6    3    4 1
   7    3   11 2
   8    4    5 ar
   9    4    9 ar
  10    5    6 ar
  11    5   36 1
  12    6    7 ar
  13    6   37 1
  14    7    8 ar
  15    7   38 1
  16    8    9 ar
  17    8   39 1
  18   12   13 1
  19   12   18 1
  20   12   40 1
  21   13   41 1
  22   13   42 1
  23   13   43 1
  24   14   15 1
  25   14   18 1
  26   15   16 2
  27   16   17 1
  28   16   23 1
  29   17   18 2
  30   17   44 1
  31   19   20 1
  32   19   23 1
  33   20   21 2
  34   20   24 1
  35   21   22 1
  36   22   23 2
  37   22   35 1
  38   24   25 1
  39   25   26 ar
  40   25   30 ar
  41   26   27 ar
  42   26   45 1
  43   27   28 ar
  44   27   46 1
  45   28   29 ar
  46   28   31 1
  47   29   30 ar
  48   29   47 1
  49   30   48 1
  50   31   32 1
  51   32   33 1
  52   32   34 1
  53   32   49 1
  54   33   50 1
  55   33   51 1
  56   33   52 1
  57   34   53 1
  58   34   54 1
  59   34   55 1

#	End of record

