#	Name: ASD02690071
#	Creating user name:	WinNT
#	Creation time:	15. 06. 2019 20:26

#	Modifying user name:	WinNT
#	Modification time:	15. 06. 2019 20:26

#	Program:	/corina/corina34_cracker 3.40 0067  02.08.2006

@<TRIPOS>MOLECULE
ASD02690071
  50   51    0    0    0
SMALL
NO_CHARGES


@<TRIPOS>ATOM
   1 N1            -0.0178     1.4650     0.0101 N.am    
   2 C2             0.0021    -0.0041     0.0020 C.3     
   3 C3             0.8803    -0.4916     1.1586 C.3     
   4 C4             2.2627     0.1563     1.0525 C.3     
   5 C5             2.1248     1.6768     1.1584 C.3     
   6 C6             1.2607     2.1889     0.0018 C.3     
   7 C7            -1.1868     2.1359     0.0193 C.2     
   8 O8            -2.2375     1.5256     0.0210 O.2     
   9 O9            -1.1902     3.4822     0.0266 O.3     
  10 C10            4.6034    -0.3436     2.0139 C.ar    
  11 C11            5.4160    -0.8129     3.0555 C.ar    
  12 C12            6.7990    -0.8062     2.8856 C.ar    
  13 C13            7.3139    -0.3348     1.6917 C.ar    
  14 C14            6.4479     0.1147     0.7038 C.ar    
  15 N15            5.1473     0.1001     0.8838 N.ar    
  16 C16            3.1403    -0.3472     2.1693 C.2     
  17 O17            2.6406    -0.7554     3.1960 O.2     
  18 O18            4.8654    -1.2654     4.2089 O.3     
  19 C19            5.7642    -1.7260     5.2199 C.3     
  20 C20            4.9653    -2.1938     6.4380 C.3     
  21 F21            4.1958    -3.3093     6.0907 F       
  22 C22           -2.4856     4.1381     0.0364 C.3     
  23 C23           -3.2605     3.7182     1.2870 C.3     
  24 C24           -2.2890     5.6554     0.0437 C.3     
  25 C25           -3.2723     3.7317    -1.2114 C.3     
  26 H26           -1.0118    -0.3840     0.1278 H       
  27 H27            0.4128    -0.3587    -0.9433 H       
  28 H28            0.4202    -0.2139     2.1069 H       
  29 H29            0.9816    -1.5757     1.1066 H       
  30 H30            2.7120    -0.1016     0.0934 H       
  31 H31            1.6530     1.9341     2.1067 H       
  32 H32            3.1119     2.1361     1.1062 H       
  33 H33            1.7740     2.0131    -0.9436 H       
  34 H34            1.0772     3.2560     0.1274 H       
  35 H35            7.4536    -1.1605     3.6682 H       
  36 H36            8.3815    -0.3162     1.5292 H       
  37 H37            6.8508     0.4827    -0.2282 H       
  38 H38            6.3535    -2.5565     4.8311 H       
  39 H39            6.4297    -0.9137     5.5119 H       
  40 H40            5.6514    -2.4616     7.2415 H       
  41 H41            4.3095    -1.3901     6.7729 H       
  42 H42           -2.7000     4.0076     2.1759 H       
  43 H43           -4.2329     4.2105     1.2943 H       
  44 H44           -3.4005     2.6372     1.2818 H       
  45 H45           -1.7370     5.9545    -0.8473 H       
  46 H46           -3.2615     6.1477     0.0510 H       
  47 H47           -1.7285     5.9448     0.9326 H       
  48 H48           -3.4124     2.6508    -1.2166 H       
  49 H49           -4.2448     4.2241    -1.2041 H       
  50 H50           -2.7203     4.0309    -2.1024 H       
@<TRIPOS>BOND
   1    1    2 1
   2    1    6 1
   3    1    7 am
   4    2    3 1
   5    2   26 1
   6    2   27 1
   7    3    4 1
   8    3   28 1
   9    3   29 1
  10    4    5 1
  11    4   16 1
  12    4   30 1
  13    5    6 1
  14    5   31 1
  15    5   32 1
  16    6   33 1
  17    6   34 1
  18    7    8 2
  19    7    9 1
  20    9   22 1
  21   10   11 ar
  22   10   15 ar
  23   10   16 1
  24   11   12 ar
  25   11   18 1
  26   12   13 ar
  27   12   35 1
  28   13   14 ar
  29   13   36 1
  30   14   15 ar
  31   14   37 1
  32   16   17 2
  33   18   19 1
  34   19   20 1
  35   19   38 1
  36   19   39 1
  37   20   21 1
  38   20   40 1
  39   20   41 1
  40   22   23 1
  41   22   25 1
  42   22   24 1
  43   23   42 1
  44   23   43 1
  45   23   44 1
  46   24   45 1
  47   24   46 1
  48   24   47 1
  49   25   48 1
  50   25   49 1
  51   25   50 1

#	End of record

