#	Name: ASD04300001
#	Creating user name:	WinNT
#	Creation time:	15. 06. 2019 20:48

#	Modifying user name:	WinNT
#	Modification time:	15. 06. 2019 20:48

#	Program:	/corina/corina34_cracker 3.40 0067  02.08.2006

@<TRIPOS>MOLECULE
ASD04300001
  39   40    0    0    0
SMALL
NO_CHARGES


@<TRIPOS>ATOM
   1 C1            -0.0200     1.4288     0.5174 C.ar    
   2 C2            -0.0315     0.0533     0.6167 C.ar    
   3 C3             1.1202    -0.6785     0.3216 C.ar    
   4 C4             2.2819    -0.0261    -0.0728 C.ar    
   5 C5             2.3044     1.3463    -0.1757 C.ar    
   6 C6             1.1521     2.0895     0.1187 C.ar    
   7 C7             1.1717     3.5487     0.0101 C.2     
   8 C8             0.0487     4.2236    -0.4236 C.2     
   9 C9             0.0284     5.6929    -0.4226 C.2     
  10 C10           -1.0967     3.4920    -0.8747 C.1     
  11 N11           -2.0053     2.9117    -1.2325 N.1     
  12 O12            0.9547     6.3138     0.0640 O.2     
  13 C13           -1.1176     6.4167    -1.0129 C.ar    
  14 C14           -1.8092     5.8708    -2.0961 C.ar    
  15 C15           -2.8778     6.5512    -2.6417 C.ar    
  16 C16           -3.2646     7.7724    -2.1183 C.ar    
  17 C17           -2.5833     8.3194    -1.0452 C.ar    
  18 C18           -1.5168     7.6467    -0.4860 C.ar    
  19 O19           -1.1654    -0.5906     1.0027 O.3     
  20 C20           -2.3064     0.2204     1.2895 C.3     
  21 O21            1.1053    -2.0322     0.4209 O.3     
  22 C22            2.3176    -2.7193     0.1045 C.3     
  23 N23            3.5442     2.0373    -0.5958 N.pl3   
  24 O24            4.5740     1.4040    -0.7442 O.2     
  25 O25            3.5346     3.2392    -0.7931 O.2     
  26 H26           -0.9117     1.9955     0.7415 H       
  27 H27            3.1699    -0.5976    -0.2991 H       
  28 H28            2.0650     4.0975     0.2694 H       
  29 H29           -1.5079     4.9181    -2.5060 H       
  30 H30           -3.4136     6.1301    -3.4796 H       
  31 H31           -4.1018     8.3012    -2.5495 H       
  32 H32           -2.8899     9.2732    -0.6420 H       
  33 H33           -0.9862     8.0745     0.3517 H       
  34 H34           -3.1401    -0.4167     1.5847 H       
  35 H35           -2.0689     0.9075     2.1016 H       
  36 H36           -2.5806     0.7891     0.4009 H       
  37 H37            2.5987    -2.5043    -0.9265 H       
  38 H38            3.1100    -2.3853     0.7743 H       
  39 H39            2.1689    -3.7924     0.2244 H       
@<TRIPOS>BOND
   1    1    2 ar
   2    1    6 ar
   3    1   26 1
   4    2    3 ar
   5    2   19 1
   6    3    4 ar
   7    3   21 1
   8    4    5 ar
   9    4   27 1
  10    5    6 ar
  11    5   23 1
  12    6    7 1
  13    7    8 2
  14    7   28 1
  15    8    9 1
  16    8   10 1
  17    9   12 2
  18    9   13 1
  19   10   11 3
  20   13   14 ar
  21   13   18 ar
  22   14   15 ar
  23   14   29 1
  24   15   16 ar
  25   15   30 1
  26   16   17 ar
  27   16   31 1
  28   17   18 ar
  29   17   32 1
  30   18   33 1
  31   19   20 1
  32   20   34 1
  33   20   35 1
  34   20   36 1
  35   21   22 1
  36   22   37 1
  37   22   38 1
  38   22   39 1
  39   23   24 2
  40   23   25 2

#	End of record

