#	Name: ASD03740276
#	Creating user name:	WinNT
#	Creation time:	15. 06. 2019 20:47

#	Modifying user name:	WinNT
#	Modification time:	15. 06. 2019 20:47

#	Program:	/corina/corina34_cracker 3.40 0067  02.08.2006

@<TRIPOS>MOLECULE
ASD03740276
  62   65    0    0    0
SMALL
NO_CHARGES


@<TRIPOS>ATOM
   1 C1            -0.1202     1.0283    -0.7205 C.2     
   2 C2            -0.1918    -0.2937    -0.4007 C.2     
   3 C3             1.2324    -0.7880    -0.2912 C.3     
   4 N4             2.0859     0.3714    -0.5771 N.am    
   5 C5             1.2865     1.4241    -0.8258 C.2     
   6 O6             1.6756     2.5440    -1.0989 O.2     
   7 O7            -1.3100    -1.0171    -0.2179 O.3     
   8 C8             3.5508     0.3805    -0.5895 C.3     
   9 C9             4.0424     0.1936    -2.0017 C.ar    
  10 C10            1.5032    -1.3059     1.1227 C.3     
  11 C11           -1.1077     1.9981    -3.5377 C.ar    
  12 C12           -1.6513     2.5014    -4.6981 C.ar    
  13 C13           -2.7562     3.3336    -4.6636 C.ar    
  14 C14           -3.3243     3.6653    -3.4420 C.ar    
  15 C15           -1.6691     2.3234    -2.2935 C.ar    
  16 C16           -2.7868     3.1678    -2.2896 C.ar    
  17 S17           -3.1711     3.3219    -0.5674 S.o2    
  18 N18           -1.9644     2.3591     0.0750 N.am    
  19 C19           -1.2767     1.9197    -0.9334 C.2     
  20 O20           -2.8991     4.6633    -0.1852 O.2     
  21 O21           -4.4103     2.6636    -0.3435 O.2     
  22 C22            0.4991    -2.4091     1.4628 C.3     
  23 C23            2.9239    -1.8690     1.1962 C.3     
  24 C24            1.3574    -0.1575     2.1231 C.3     
  25 C25            4.2591     1.2947    -2.8090 C.ar    
  26 C26            4.7104     1.1246    -4.1041 C.ar    
  27 C27            4.9455    -0.1493    -4.5931 C.ar    
  28 C28            4.7281    -1.2513    -3.7836 C.ar    
  29 C29            4.2819    -1.0785    -2.4871 C.ar    
  30 C30           -4.5276     4.5709    -3.3872 C.3     
  31 N31           -4.1010     5.9296    -3.0434 N.am    
  32 S32           -5.1334     7.2042    -3.2711 S.o2    
  33 C33           -6.4989     6.8921    -2.1184 C.3     
  34 O34           -4.3841     8.3397    -2.8607 O.2     
  35 O35           -5.5731     7.0633    -4.6150 O.2     
  36 F36            5.3862    -0.3168    -5.8591 F       
  37 H37            1.4133    -1.5766    -1.0216 H       
  38 H38           -2.1510    -0.5406    -0.2485 H       
  39 H39            3.9116     1.3334    -0.2023 H       
  40 H40            3.9245    -0.4306     0.0356 H       
  41 H41           -0.2479     1.3464    -3.5855 H       
  42 H42           -1.2089     2.2431    -5.6489 H       
  43 H43           -3.1733     3.7223    -5.5808 H       
  44 H44            0.6030    -3.2273     0.7501 H       
  45 H45            0.6921    -2.7781     2.4702 H       
  46 H46           -0.5130    -2.0079     1.4105 H       
  47 H47            3.6293    -1.0548     1.3626 H       
  48 H48            2.9904    -2.5812     2.0187 H       
  49 H49            3.1642    -2.3722     0.2596 H       
  50 H50            0.3453     0.2437     2.0708 H       
  51 H51            1.5504    -0.5265     3.1305 H       
  52 H52            2.0727     0.6284     1.8809 H       
  53 H53            4.0753     2.2883    -2.4276 H       
  54 H54            4.8792     1.9850    -4.7348 H       
  55 H55            4.9112    -2.2455    -4.1639 H       
  56 H56            4.1162    -1.9378    -1.8542 H       
  57 H57           -5.0202     4.5799    -4.3596 H       
  58 H58           -5.2228     4.2061    -2.6311 H       
  59 H59           -3.2137     6.0826    -2.6824 H       
  60 H60           -6.1135     6.8576    -1.0994 H       
  61 H61           -7.2347     7.6920    -2.2017 H       
  62 H62           -6.9690     5.9392    -2.3616 H       
@<TRIPOS>BOND
   1    1    2 2
   2    1    5 1
   3    1   19 1
   4    2    3 1
   5    2    7 1
   6    3    4 1
   7    3   10 1
   8    3   37 1
   9    4    5 am
  10    4    8 1
  11    5    6 2
  12    7   38 1
  13    8    9 1
  14    8   39 1
  15    8   40 1
  16    9   25 ar
  17    9   29 ar
  18   10   22 1
  19   10   23 1
  20   10   24 1
  21   11   12 ar
  22   11   15 ar
  23   11   41 1
  24   12   13 ar
  25   12   42 1
  26   13   14 ar
  27   13   43 1
  28   14   16 ar
  29   14   30 1
  30   15   16 ar
  31   15   19 1
  32   16   17 1
  33   17   18 am
  34   17   20 2
  35   17   21 2
  36   18   19 2
  37   22   44 1
  38   22   45 1
  39   22   46 1
  40   23   47 1
  41   23   48 1
  42   23   49 1
  43   24   50 1
  44   24   51 1
  45   24   52 1
  46   25   26 ar
  47   25   53 1
  48   26   27 ar
  49   26   54 1
  50   27   28 ar
  51   27   36 1
  52   28   29 ar
  53   28   55 1
  54   29   56 1
  55   30   31 1
  56   30   57 1
  57   30   58 1
  58   31   32 am
  59   31   59 1
  60   32   33 1
  61   32   34 2
  62   32   35 2
  63   33   60 1
  64   33   61 1
  65   33   62 1

#	End of record

