#	Name: ASD00840175
#	Creating user name:	WinNT
#	Creation time:	15. 06. 2019 18:37

#	Modifying user name:	WinNT
#	Modification time:	15. 06. 2019 18:37

#	Program:	/corina/corina34_cracker 3.40 0067  02.08.2006

@<TRIPOS>MOLECULE
ASD00840175
  89   94    0    0    0
SMALL
NO_CHARGES


@<TRIPOS>ATOM
   1 N1            -0.0063     1.3226     0.0260 N.ar    
   2 C2             0.0083     0.0002     0.0131 C.ar    
   3 C3             1.2113    -0.6941    -0.0054 C.ar    
   4 C4             2.3988     0.0164    -0.0102 C.ar    
   5 C5             2.3405     1.4034     0.0037 C.ar    
   6 C6             1.1093     2.0274     0.0219 C.ar    
   7 C7             1.2231    -2.2010    -0.0196 C.3     
   8 C8             0.4754    -2.7262    -1.2266 C.2     
   9 N9             2.5995    -2.7026    -0.0100 N.am    
  10 C10            3.4472    -2.3639    -1.0016 C.2     
  11 N11            4.7405    -2.7378    -0.9396 N.am    
  12 O12            3.0450    -1.7211    -1.9521 O.2     
  13 C13            5.2736    -3.4177     0.2507 C.3     
  14 C14            6.0030    -4.6878    -0.2000 C.3     
  15 N15            7.0043    -4.3390    -1.2167 N.3     
  16 C16            6.3707    -3.7838    -2.4202 C.3     
  17 C17            5.6549    -2.4821    -2.0629 C.3     
  18 C18            7.8420    -5.4988    -1.5502 C.3     
  19 C19            8.7878    -5.1337    -2.6977 C.3     
  20 C20            9.6992    -6.3254    -2.9998 C.3     
  21 N21           10.4691    -6.6714    -1.7982 N.3     
  22 C22            9.5837    -7.0711    -0.6970 C.3     
  23 C23            8.6689    -5.9016    -0.3261 C.3     
  24 C24           11.4548    -7.7212    -2.0887 C.3     
  25 O25            0.7559    -2.5280    -2.3897 O.2     
  26 N26           -0.5566    -3.4536    -0.7679 N.am    
  27 C27            0.4483    -2.7482     1.1577 C.ar    
  28 C28           -0.6034    -3.4883     0.6229 C.ar    
  29 C29            0.6135    -2.6329     2.5147 C.ar    
  30 C30           -0.2845    -3.2660     3.3814 C.ar    
  31 C31           -1.3442    -4.0117     2.8510 C.ar    
  32 C32           -1.4986    -4.1209     1.4856 C.ar    
  33 F33           -2.2165    -4.6266     3.6793 F       
  34 C34           -1.0254    -5.8400    -2.0562 C.ar    
  35 C35           -1.3584    -6.8827    -1.2118 C.ar    
  36 C36           -0.2072    -6.0681    -3.1468 C.ar    
  37 C37            0.2779    -7.3389    -3.3931 C.ar    
  38 C38           -0.0547    -8.3815    -2.5485 C.ar    
  39 C39           -0.8729    -8.1534    -1.4579 C.ar    
  40 H40            0.3243    -9.3743    -2.7409 H       
  41 H41           -1.9977    -6.7045    -0.3598 H       
  42 C42           12.3983    -7.8794    -0.8947 C.3     
  43 C43           13.4249    -8.9728    -1.1973 C.3     
  44 O44           -1.1629    -0.6847     0.0184 O.3     
  45 C45           -3.5737    -0.8521     0.0414 C.3     
  46 C46           -2.3656     0.0867     0.0382 C.3     
  47 S47           -1.6498    -4.2217    -1.7463 S.o2    
  48 O48           -2.8312    -4.3884    -0.9746 O.2     
  49 O49           -1.6247    -3.5369    -2.9912 O.2     
  50 C50           -0.1206    -3.1524     4.7995 C.1     
  51 N51            0.0093    -3.0622     5.9244 N.1     
  52 H52            3.3492    -0.4964    -0.0242 H       
  53 H53            3.2486     1.9879     0.0008 H       
  54 H54            1.0584     3.1062     0.0324 H       
  55 H55            2.9009    -3.2785     0.7101 H       
  56 H56            5.9714    -2.7586     0.7672 H       
  57 H57            4.4541    -3.6835     0.9183 H       
  58 H58            6.4983    -5.1460     0.6561 H       
  59 H59            5.2840    -5.3894    -0.6232 H       
  60 H60            7.1326    -3.5864    -3.1742 H       
  61 H61            5.6466    -4.4979    -2.8124 H       
  62 H62            5.0890    -2.1271    -2.9242 H       
  63 H63            6.3872    -1.7308    -1.7675 H       
  64 H64            7.2072    -6.3318    -1.8524 H       
  65 H65            8.2051    -4.8871    -3.5852 H       
  66 H66            9.3947    -4.2752    -2.4100 H       
  67 H67            9.0925    -7.1795    -3.3008 H       
  68 H68           10.3836    -6.0639    -3.8068 H       
  69 H69            8.9776    -7.9216    -1.0088 H       
  70 H70           10.1842    -7.3511     0.1685 H       
  71 H71            9.2739    -5.0552    -0.0011 H       
  72 H72            8.0012    -6.2036     0.4807 H       
  73 H73           10.9386    -8.6637    -2.2712 H       
  74 H74           12.0301    -7.4450    -2.9723 H       
  75 H75            1.4347    -2.0555     2.9130 H       
  76 H76           -2.3177    -4.6975     1.0819 H       
  77 H77            0.0527    -5.2536    -3.8066 H       
  78 H78            0.9166    -7.5172    -4.2455 H       
  79 H79           -1.1331    -8.9680    -0.7983 H       
  80 H80           12.9145    -6.9368    -0.7122 H       
  81 H81           11.8230    -8.1556    -0.0111 H       
  82 H82           12.9088    -9.9153    -1.3798 H       
  83 H83           14.0002    -8.6965    -2.0809 H       
  84 H84           14.0971    -9.0854    -0.3466 H       
  85 H85           -3.5362    -1.4893     0.9250 H       
  86 H86           -4.4911    -0.2636     0.0565 H       
  87 H87           -3.5544    -1.4721    -0.8548 H       
  88 H88           -2.3848     0.7068     0.9344 H       
  89 H89           -2.4030     0.7240    -0.8454 H       
@<TRIPOS>BOND
   1    1    2 ar
   2    1    6 ar
   3    2    3 ar
   4    2   44 1
   5    3    4 ar
   6    3    7 1
   7    4    5 ar
   8    4   52 1
   9    5    6 ar
  10    5   53 1
  11    6   54 1
  12    7    8 1
  13    7    9 1
  14    7   27 1
  15    8   25 2
  16    8   26 am
  17    9   10 am
  18    9   55 1
  19   10   11 am
  20   10   12 2
  21   11   13 1
  22   11   17 1
  23   13   14 1
  24   13   56 1
  25   13   57 1
  26   14   15 1
  27   14   58 1
  28   14   59 1
  29   15   16 1
  30   15   18 1
  31   16   17 1
  32   16   60 1
  33   16   61 1
  34   17   62 1
  35   17   63 1
  36   18   19 1
  37   18   23 1
  38   18   64 1
  39   19   20 1
  40   19   65 1
  41   19   66 1
  42   20   21 1
  43   20   67 1
  44   20   68 1
  45   21   22 1
  46   21   24 1
  47   22   23 1
  48   22   69 1
  49   22   70 1
  50   23   71 1
  51   23   72 1
  52   24   42 1
  53   24   73 1
  54   24   74 1
  55   26   47 am
  56   26   28 1
  57   27   28 ar
  58   27   29 ar
  59   28   32 ar
  60   29   30 ar
  61   29   75 1
  62   30   31 ar
  63   30   50 1
  64   31   32 ar
  65   31   33 1
  66   32   76 1
  67   34   35 ar
  68   34   36 ar
  69   34   47 1
  70   35   41 1
  71   35   39 ar
  72   36   37 ar
  73   36   77 1
  74   37   38 ar
  75   37   78 1
  76   38   39 ar
  77   38   40 1
  78   39   79 1
  79   42   43 1
  80   42   80 1
  81   42   81 1
  82   43   82 1
  83   43   83 1
  84   43   84 1
  85   44   46 1
  86   45   46 1
  87   45   85 1
  88   45   86 1
  89   45   87 1
  90   46   88 1
  91   46   89 1
  92   47   48 2
  93   47   49 2
  94   50   51 3

#	End of record

