#	Name: ASD03430391
#	Creating user name:	WinNT
#	Creation time:	15. 06. 2019 20:41

#	Modifying user name:	WinNT
#	Modification time:	15. 06. 2019 20:41

#	Program:	/corina/corina34_cracker 3.40 0067  02.08.2006

@<TRIPOS>MOLECULE
ASD03430391
  57   62    0    0    0
SMALL
NO_CHARGES


@<TRIPOS>ATOM
   1 N1            -0.0156     1.4930     0.4899 N.am    
   2 C2             0.0409     0.2262     0.9344 C.2     
   3 C3             1.4804    -0.0493     1.3134 C.3     
   4 C4             2.1951     1.2477     1.0111 C.ar    
   5 C5             3.5079     1.6439     1.1354 C.ar    
   6 C6             3.8795     2.9279     0.7697 C.ar    
   7 C7             2.9271     3.8065     0.2807 C.ar    
   8 C8             1.6118     3.4102     0.1566 C.ar    
   9 C9             1.2316     2.1203     0.5221 C.ar    
  10 O10           -0.8870    -0.5505     1.0165 O.2     
  11 O11            1.9492    -1.4964     6.7414 O.3     
  12 C12            2.9073    -2.5673     6.6962 C.3     
  13 C13            2.7488    -3.1086     5.2556 C.3     
  14 C14            2.2148    -1.8935     4.5217 C.ar    
  15 C15            1.7740    -0.9965     5.4873 C.ar    
  16 C16            1.2418     0.2231     5.0803 C.ar    
  17 C17            1.1490     0.5276     3.7328 C.ar    
  18 C18            1.5861    -0.3810     2.7796 C.ar    
  19 C19            2.1187    -1.5925     3.1809 C.ar    
  20 O20            0.6274     1.7202     3.3425 O.3     
  21 O21            2.0128    -1.1111     0.5190 O.3     
  22 F22            5.1663     3.3213     0.8902 F       
  23 C23           -1.2433     2.1397     0.0198 C.3     
  24 C24           -0.9991     2.7580    -1.3327 C.ar    
  25 C25           -1.5149     4.0067    -1.6251 C.ar    
  26 C26           -1.2910     4.5738    -2.8657 C.ar    
  27 C27           -0.5509     3.8924    -3.8138 C.ar    
  28 C28           -0.0344     2.6441    -3.5211 C.ar    
  29 C29           -0.2546     2.0788    -2.2789 C.ar    
  30 C30           -2.3419     1.1138    -0.0878 C.ar    
  31 C31           -3.4804     1.2365     0.6865 C.ar    
  32 C32           -4.4882     0.2955     0.5878 C.ar    
  33 C33           -4.3576    -0.7681    -0.2855 C.ar    
  34 C34           -3.2195    -0.8904    -1.0604 C.ar    
  35 C35           -2.2136     0.0531    -0.9649 C.ar    
  36 H36            4.2468     0.9551     1.5175 H       
  37 H37            3.2157     4.8074    -0.0045 H       
  38 H38            0.8747     4.1012    -0.2252 H       
  39 H39            3.9168    -2.1892     6.8577 H       
  40 H40            2.6606    -3.3372     7.4273 H       
  41 H41            3.7109    -3.4184     4.8478 H       
  42 H42            2.0317    -3.9289     5.2244 H       
  43 H43            0.9002     0.9344     5.8177 H       
  44 H44            2.4603    -2.3029     2.4426 H       
  45 H45            1.2823     2.4263     3.2556 H       
  46 H46            1.5517    -1.9539     0.6289 H       
  47 H47           -1.5386     2.9156     0.7260 H       
  48 H48           -2.0931     4.5391    -0.8844 H       
  49 H49           -1.6946     5.5491    -3.0944 H       
  50 H50           -0.3766     4.3352    -4.7833 H       
  51 H51            0.5436     2.1115    -4.2619 H       
  52 H52            0.1521     1.1051    -2.0490 H       
  53 H53           -3.5825     2.0675     1.3688 H       
  54 H54           -5.3774     0.3910     1.1933 H       
  55 H55           -5.1446    -1.5037    -0.3620 H       
  56 H56           -3.1173    -1.7215    -1.7425 H       
  57 H57           -1.3260    -0.0404    -1.5731 H       
@<TRIPOS>BOND
   1    1    2 am
   2    1    9 1
   3    1   23 1
   4    2    3 1
   5    2   10 2
   6    3    4 1
   7    3   18 1
   8    3   21 1
   9    4    5 ar
  10    4    9 ar
  11    5    6 ar
  12    5   36 1
  13    6    7 ar
  14    6   22 1
  15    7    8 ar
  16    7   37 1
  17    8    9 ar
  18    8   38 1
  19   11   12 1
  20   11   15 1
  21   12   13 1
  22   12   39 1
  23   12   40 1
  24   13   14 1
  25   13   41 1
  26   13   42 1
  27   14   15 ar
  28   14   19 ar
  29   15   16 ar
  30   16   17 ar
  31   16   43 1
  32   17   18 ar
  33   17   20 1
  34   18   19 ar
  35   19   44 1
  36   20   45 1
  37   21   46 1
  38   23   24 1
  39   23   30 1
  40   23   47 1
  41   24   25 ar
  42   24   29 ar
  43   25   26 ar
  44   25   48 1
  45   26   27 ar
  46   26   49 1
  47   27   28 ar
  48   27   50 1
  49   28   29 ar
  50   28   51 1
  51   29   52 1
  52   30   31 ar
  53   30   35 ar
  54   31   32 ar
  55   31   53 1
  56   32   33 ar
  57   32   54 1
  58   33   34 ar
  59   33   55 1
  60   34   35 ar
  61   34   56 1
  62   35   57 1

#	End of record

