#	Name: ASD09490010
#	Creating user name:	WinNT
#	Creation time:	15. 06. 2019 21:22

#	Modifying user name:	WinNT
#	Modification time:	15. 06. 2019 21:22

#	Program:	/corina/corina34_cracker 3.40 0067  02.08.2006

@<TRIPOS>MOLECULE
ASD09490010
  50   52    0    0    0
SMALL
NO_CHARGES


@<TRIPOS>ATOM
   1 O1            -0.2190    -0.1461     0.0039 O.2     
   2 C2            -0.2405     1.0687     0.0491 C.2     
   3 N3            -1.4186     1.7199     0.1162 N.am    
   4 C4            -2.6171     1.0078     0.0185 C.ar    
   5 C5            -3.7147     1.4172     0.7454 C.ar    
   6 C6            -4.9129     0.6991     0.6423 C.ar    
   7 C7            -6.0688     1.0649     1.3568 C.ar    
   8 C8            -7.1960     0.3165     1.2033 C.ar    
   9 N9            -7.2304    -0.7406     0.4034 N.ar    
  10 C10           -6.1912    -1.1396    -0.2928 C.ar    
  11 C11           -4.9795    -0.4371    -0.2070 C.ar    
  12 C12           -3.8421    -0.8265    -0.9335 C.ar    
  13 C13           -2.6918    -0.1105    -0.8211 C.ar    
  14 N14            0.9141     1.7639     0.0376 N.am    
  15 C15            2.1949     1.0559    -0.0293 C.3     
  16 C16            3.3395     2.0711    -0.0287 C.3     
  17 C17            4.6776     1.3311     0.0226 C.3     
  18 C18            5.8171     2.3452     0.1416 C.3     
  19 N19            5.7129     3.0502     1.4261 N.3     
  20 C20            4.8563     0.5110    -1.2567 C.3     
  21 C21            6.1944    -0.2291    -1.2054 C.3     
  22 C22            6.2144    -1.1632     0.0062 C.3     
  23 C23            6.0358    -0.3432     1.2854 C.3     
  24 C24            4.6976     0.3969     1.2341 C.3     
  25 H25           -1.4346     2.6827     0.2324 H       
  26 H26           -3.6512     2.2828     1.3882 H       
  27 H27           -6.0619     1.9219     2.0140 H       
  28 H28           -8.0868     0.5914     1.7485 H       
  29 H29           -6.2688    -2.0077    -0.9307 H       
  30 H30           -3.8822    -1.6895    -1.5816 H       
  31 H31           -1.8200    -0.4135    -1.3819 H       
  32 H32            0.8970     2.7331     0.0736 H       
  33 H33            2.2921     0.3983     0.8346 H       
  34 H34            2.2352     0.4634    -0.9433 H       
  35 H35            3.2918     2.6730    -0.9363 H       
  36 H36            3.2494     2.7198     0.8426 H       
  37 H37            6.7735     1.8249     0.0892 H       
  38 H38            5.7498     3.0647    -0.6744 H       
  39 H39            6.5001     3.6658     1.5656 H       
  40 H40            4.8423     3.5561     1.4913 H       
  41 H41            4.0445    -0.2114    -1.3415 H       
  42 H42            4.8420     1.1765    -2.1198 H       
  43 H43            6.3217    -0.8133    -2.1168 H       
  44 H44            7.0061     0.4934    -1.1206 H       
  45 H45            5.4026    -1.8857    -0.0786 H       
  46 H46            7.1677    -1.6904     0.0427 H       
  47 H47            6.0500    -1.0087     2.1486 H       
  48 H48            6.8475     0.3793     1.3702 H       
  49 H49            4.5704     0.9811     2.1455 H       
  50 H50            3.8859    -0.3255     1.1493 H       
@<TRIPOS>BOND
   1    1    2 2
   2    2   14 am
   3    2    3 am
   4    3   25 1
   5    3    4 1
   6    4    5 ar
   7    4   13 ar
   8    5   26 1
   9    5    6 ar
  10    6    7 ar
  11    6   11 ar
  12    7   27 1
  13    7    8 ar
  14    8   28 1
  15    8    9 ar
  16    9   10 ar
  17   10   11 ar
  18   10   29 1
  19   11   12 ar
  20   12   13 ar
  21   12   30 1
  22   13   31 1
  23   14   15 1
  24   14   32 1
  25   15   16 1
  26   15   33 1
  27   15   34 1
  28   16   17 1
  29   16   35 1
  30   16   36 1
  31   17   20 1
  32   17   18 1
  33   17   24 1
  34   18   37 1
  35   18   38 1
  36   18   19 1
  37   19   39 1
  38   19   40 1
  39   20   21 1
  40   20   41 1
  41   20   42 1
  42   21   43 1
  43   21   44 1
  44   21   22 1
  45   22   45 1
  46   22   46 1
  47   22   23 1
  48   23   47 1
  49   23   48 1
  50   23   24 1
  51   24   49 1
  52   24   50 1

#	End of record

