#	Name: ASD01811269
#	Creating user name:	WinNT
#	Creation time:	15. 06. 2019 19:26

#	Modifying user name:	WinNT
#	Modification time:	15. 06. 2019 19:26

#	Program:	/corina/corina34_cracker 3.40 0067  02.08.2006

@<TRIPOS>MOLECULE
ASD01811269
  65   68    0    0    0
SMALL
NO_CHARGES


@<TRIPOS>ATOM
   1 C1             6.8766    11.1224    -0.9409 C.1     
   2 C2             5.6131    10.4874    -0.7155 C.ar    
   3 C3             5.5556     9.1222    -0.4281 C.ar    
   4 C4             4.3350     8.5168    -0.2121 C.ar    
   5 C5             3.1694     9.2592    -0.2803 C.ar    
   6 C6             3.2190    10.6122    -0.5651 C.ar    
   7 C7             4.4333    11.2317    -0.7766 C.ar    
   8 N8             7.8790    11.6262    -1.1197 N.1     
   9 N9            -0.9805     8.5553     0.1706 N.am    
  10 C10           -0.1913     8.5432     1.4099 C.3     
  11 C11            1.1441     9.2477     1.1508 C.3     
  12 C12            1.8396     8.5908    -0.0437 C.3     
  13 C13            0.9650     8.7399    -1.2906 C.3     
  14 C14           -0.3725     8.0296    -1.0593 C.3     
  15 C15           -2.2403     9.0343     0.1634 C.2     
  16 C16           -2.8832     9.4426     1.4308 C.ar    
  17 C17           -2.7233     8.6639     2.5796 C.ar    
  18 C18           -3.3233     9.0435     3.7636 C.ar    
  19 C19           -4.0845    10.1944     3.8211 C.ar    
  20 C20           -4.2525    10.9820     2.6801 C.ar    
  21 C21           -3.6449    10.6076     1.4833 C.ar    
  22 O22           -2.8479     9.1305    -0.8849 O.2     
  23 C23           -5.0682    12.2136     2.7434 C.2     
  24 N24           -5.3390    12.9012     1.6163 N.am    
  25 O25           -5.4946    12.6059     3.8119 O.2     
  26 C26           -6.1472    14.1215     1.6790 C.3     
  27 C27           -7.2496    15.9056     0.3179 C.3     
  28 C28           -6.3037    14.7024     0.2723 C.3     
  29 C29           -7.3544    16.5192    -1.0802 C.3     
  30 N30           -6.0219    16.9383    -1.5333 N.3     
  31 C31           -5.1092    15.7921    -1.6303 C.3     
  32 C32           -4.9374    15.1568    -0.2486 C.3     
  33 C33           -4.7358    10.6009     5.1179 C.3     
  34 H34            6.4647     8.5415    -0.3753 H       
  35 H35            4.2891     7.4610     0.0103 H       
  36 H36            2.3053    11.1857    -0.6172 H       
  37 H37            4.4709    12.2890    -0.9941 H       
  38 H38           -0.7354     9.0686     2.1947 H       
  39 H39           -0.0078     7.5134     1.7162 H       
  40 H40            0.9639    10.3004     0.9330 H       
  41 H41            1.7781     9.1617     2.0334 H       
  42 H42            1.9971     7.5325     0.1648 H       
  43 H43            0.7864     9.7974    -1.4855 H       
  44 H44            1.4714     8.2924    -2.1459 H       
  45 H45           -0.2037     6.9579    -0.9543 H       
  46 H46           -1.0361     8.2162    -1.9036 H       
  47 H47           -2.1293     7.7627     2.5413 H       
  48 H48           -3.1972     8.4376     4.6486 H       
  49 H49           -3.7680    11.2156     0.5992 H       
  50 H50           -4.9987    12.5882     0.7636 H       
  51 H51           -7.1304    13.8856     2.0861 H       
  52 H52           -5.6538    14.8515     2.3208 H       
  53 H53           -8.2364    15.5805     0.6474 H       
  54 H54           -6.8597    16.6489     1.0132 H       
  55 H55           -6.7135    13.9419    -0.3924 H       
  56 H56           -7.7573    15.7797    -1.7722 H       
  57 H57           -8.0160    17.3849    -1.0483 H       
  58 H58           -6.0773    17.4318    -2.4116 H       
  59 H59           -5.5226    15.0559    -2.3197 H       
  60 H60           -4.1401    16.1296    -1.9978 H       
  61 H61           -4.5111    15.8883     0.4378 H       
  62 H62           -4.2722    14.2966    -0.3238 H       
  63 H63           -4.1094    11.3352     5.6245 H       
  64 H64           -5.7133    11.0372     4.9125 H       
  65 H65           -4.8556     9.7245     5.7548 H       
@<TRIPOS>BOND
   1    1    2 1
   2    1    8 3
   3    2    3 ar
   4    2    7 ar
   5    3    4 ar
   6    3   34 1
   7    4    5 ar
   8    4   35 1
   9    5    6 ar
  10    5   12 1
  11    6    7 ar
  12    6   36 1
  13    7   37 1
  14    9   10 1
  15    9   14 1
  16    9   15 am
  17   10   11 1
  18   10   38 1
  19   10   39 1
  20   11   12 1
  21   11   40 1
  22   11   41 1
  23   12   13 1
  24   12   42 1
  25   13   14 1
  26   13   43 1
  27   13   44 1
  28   14   45 1
  29   14   46 1
  30   15   16 1
  31   15   22 2
  32   16   17 ar
  33   16   21 ar
  34   17   18 ar
  35   17   47 1
  36   18   19 ar
  37   18   48 1
  38   19   20 ar
  39   19   33 1
  40   20   21 ar
  41   20   23 1
  42   21   49 1
  43   23   24 am
  44   23   25 2
  45   24   26 1
  46   24   50 1
  47   26   28 1
  48   26   51 1
  49   26   52 1
  50   27   28 1
  51   27   29 1
  52   27   53 1
  53   27   54 1
  54   28   32 1
  55   28   55 1
  56   29   30 1
  57   29   56 1
  58   29   57 1
  59   30   31 1
  60   30   58 1
  61   31   32 1
  62   31   59 1
  63   31   60 1
  64   32   61 1
  65   32   62 1
  66   33   63 1
  67   33   64 1
  68   33   65 1

#	End of record

