#	Name: ASD04882028
#	Creating user name:	WinNT
#	Creation time:	15. 06. 2019 20:53

#	Modifying user name:	WinNT
#	Modification time:	15. 06. 2019 20:53

#	Program:	/corina/corina34_cracker 3.40 0067  02.08.2006

@<TRIPOS>MOLECULE
ASD04882028
  71   75    0    0    0
SMALL
NO_CHARGES


@<TRIPOS>ATOM
   1 C1             1.3898    -0.9281    -0.1906 C.ar    
   2 C2             0.9302    -1.7150    -1.2305 C.ar    
   3 C3             1.5294    -1.6412    -2.4748 C.ar    
   4 C4             2.5892    -0.7809    -2.6826 C.ar    
   5 C5             3.0536     0.0112    -1.6399 C.ar    
   6 C6             2.4496    -0.0653    -0.3915 C.ar    
   7 N7             4.1258     0.8823    -1.8464 N.3     
   8 C8             5.2721     0.5158    -1.0030 C.3     
   9 C9             6.4492     1.4424    -1.3161 C.3     
  10 N10            6.0487     2.8363    -1.0786 N.3     
  11 C11            4.9024     3.2028    -1.9220 C.3     
  12 C12            3.7252     2.2761    -1.6090 C.3     
  13 C13            7.1176     3.7046    -1.2845 C.ar    
  14 C14            7.0845     4.6078    -2.3404 C.ar    
  15 C15            8.1396     5.4690    -2.5475 C.ar    
  16 C16            9.2471     5.4365    -1.6961 C.ar    
  17 C17            9.2829     4.5290    -0.6332 C.ar    
  18 C18            8.2200     3.6708    -0.4254 C.ar    
  19 N19            8.2520     2.7599     0.6385 N.am    
  20 C20            9.4340     2.3583     1.1465 C.2     
  21 C21            9.4675     1.4975     2.3330 C.2     
  22 O22           10.4736     2.7100     0.6202 O.2     
  23 O23            8.3946     1.0374     3.0093 O.3     
  24 C24           10.3773     6.3582    -1.9187 C.2     
  25 O25           10.9068     6.9103    -0.9735 O.2     
  26 C26           10.5901     1.0162     2.9438 C.2     
  27 C27           10.1572     0.2427     4.0322 C.2     
  28 C28            8.8065     0.2820     4.0358 C.2     
  29 C29            3.2418    -0.7015    -4.0386 C.3     
  30 N30           10.8228     6.5883    -3.1697 N.am    
  31 C31           12.0040     7.4320    -3.3996 C.3     
  32 C32           10.1398     5.9951    -4.3279 C.3     
  33 C33           11.1642     5.1995    -5.1464 C.3     
  34 N34           12.3421     6.0477    -5.3767 N.am    
  35 C35           13.0245     6.6333    -4.2201 C.3     
  36 C36           12.7882     6.2771    -6.6276 C.2     
  37 C37           14.0708     7.0385    -6.8424 C.3     
  38 O38           12.1574     5.8707    -7.5804 O.2     
  39 H39            0.9168    -0.9849     0.7786 H       
  40 H40            0.1016    -2.3890    -1.0706 H       
  41 H41            1.1681    -2.2575    -3.2848 H       
  42 H42            2.8081     0.5490     0.4211 H       
  43 H43            4.9982     0.6177     0.0471 H       
  44 H44            5.5577    -0.5163    -1.2061 H       
  45 H45            7.2913     1.1912    -0.6712 H       
  46 H46            6.7406     1.3205    -2.3593 H       
  47 H47            4.6167     4.2349    -1.7189 H       
  48 H48            5.1762     3.1008    -2.9721 H       
  49 H49            2.8831     2.5274    -2.2539 H       
  50 H50            3.4338     2.3981    -0.5658 H       
  51 H51            6.2299     4.6342    -3.0002 H       
  52 H52            8.1109     6.1696    -3.3689 H       
  53 H53           10.1375     4.5016     0.0266 H       
  54 H54            7.4234     2.4184     1.0096 H       
  55 H55           11.6128     1.1957     2.6468 H       
  56 H56           10.7855    -0.2868     4.7331 H       
  57 H57            8.1648    -0.2137     4.7491 H       
  58 H58            2.6891    -0.0037    -4.6676 H       
  59 H59            4.2693    -0.3551    -3.9276 H       
  60 H60            3.2391    -1.6883    -4.5015 H       
  61 H61           11.7129     8.3271    -3.9493 H       
  62 H62           12.4440     7.7140    -2.4431 H       
  63 H63            9.3489     5.3285    -3.9842 H       
  64 H64            9.7129     6.7856    -4.9452 H       
  65 H65           11.4587     4.3064    -4.5952 H       
  66 H66           10.7261     4.9142    -6.1028 H       
  67 H67           13.8154     7.3011    -4.5615 H       
  68 H68           13.4516     5.8398    -3.6069 H       
  69 H69           14.4490     7.3912    -5.8829 H       
  70 H70           14.8089     6.3836    -7.3054 H       
  71 H71           13.8821     7.8915    -7.4943 H       
@<TRIPOS>BOND
   1    1    2 ar
   2    1    6 ar
   3    1   39 1
   4    2    3 ar
   5    2   40 1
   6    3    4 ar
   7    3   41 1
   8    4    5 ar
   9    4   29 1
  10    5    6 ar
  11    5    7 1
  12    6   42 1
  13    7    8 1
  14    7   12 1
  15    8    9 1
  16    8   43 1
  17    8   44 1
  18    9   10 1
  19    9   45 1
  20    9   46 1
  21   10   11 1
  22   10   13 1
  23   11   12 1
  24   11   47 1
  25   11   48 1
  26   12   49 1
  27   12   50 1
  28   13   14 ar
  29   13   18 ar
  30   14   15 ar
  31   14   51 1
  32   15   16 ar
  33   15   52 1
  34   16   17 ar
  35   16   24 1
  36   17   18 ar
  37   17   53 1
  38   18   19 1
  39   19   20 am
  40   19   54 1
  41   20   21 1
  42   20   22 2
  43   21   23 1
  44   21   26 2
  45   23   28 1
  46   24   25 2
  47   24   30 am
  48   26   27 1
  49   26   55 1
  50   27   28 2
  51   27   56 1
  52   28   57 1
  53   29   58 1
  54   29   59 1
  55   29   60 1
  56   30   31 1
  57   30   32 1
  58   31   35 1
  59   31   61 1
  60   31   62 1
  61   32   33 1
  62   32   63 1
  63   32   64 1
  64   33   34 1
  65   33   65 1
  66   33   66 1
  67   34   35 1
  68   34   36 am
  69   35   67 1
  70   35   68 1
  71   36   37 1
  72   36   38 2
  73   37   69 1
  74   37   70 1
  75   37   71 1

#	End of record

