#	Name: ASD09116058
#	Creating user name:	WinNT
#	Creation time:	15. 06. 2019 21:20

#	Modifying user name:	WinNT
#	Modification time:	15. 06. 2019 21:20

#	Program:	/corina/corina34_cracker 3.40 0067  02.08.2006

@<TRIPOS>MOLECULE
ASD09116058
  66   70    0    0    0
SMALL
NO_CHARGES


@<TRIPOS>ATOM
   1 C1            -0.0666     1.3931    -0.3082 C.ar    
   2 N2            -0.0345     0.0019    -0.2549 N.pl3   
   3 N3            -1.1343    -0.8614    -0.1241 N.2     
   4 C4            -0.6625    -2.0847    -0.1159 C.2     
   5 N5             0.6699    -2.0423    -0.2339 N.2     
   6 C6             1.0678    -0.7916    -0.3251 C.2     
   7 N7             2.3735    -0.3607    -0.4583 N.pl3   
   8 N8            -1.4273    -3.2452    -0.0017 N.pl3   
   9 N9             1.0704     2.0589    -0.4348 N.ar    
  10 N10           -1.2371     2.0150    -0.2362 N.ar    
  11 C11           -1.2891     3.3281    -0.2825 C.ar    
  12 C12           -0.1169     4.0594    -0.4212 C.ar    
  13 C13            1.0838     3.3832    -0.4954 C.ar    
  14 C14           -2.5768     4.0989    -0.1723 C.3     
  15 C15           -3.1203     4.4899    -1.5093 C.3     
  16 C16           -2.5014     5.6799    -2.2160 C.3     
  17 C17           -1.1348     5.2986    -2.8138 C.3     
  18 C18           -0.0349     5.9877    -1.9587 C.3     
  19 C19           -0.2021     5.5575    -0.5023 C.3     
  20 C20           -0.8174    -4.5001    -0.1197 C.ar    
  21 C21           -1.3415    -5.5930     0.5573 C.ar    
  22 C22           -0.7404    -6.8316     0.4414 C.ar    
  23 C23            0.3880    -6.9842    -0.3515 C.ar    
  24 C24            0.9139    -5.8900    -1.0302 C.ar    
  25 C25            0.3086    -4.6526    -0.9188 C.ar    
  26 N26            0.9979    -8.2405    -0.4680 N.3     
  27 F27            2.0128    -6.0379    -1.8021 F       
  28 C28            1.4248    -8.7092     0.7812 C.3     
  29 C29            2.2749    -9.9922     0.6447 C.3     
  30 C30            1.3610   -11.1570     0.3616 C.3     
  31 N31            1.1872   -11.4156    -1.0860 N.3     
  32 C32            1.0256   -10.1900    -1.8951 C.3     
  33 C33            0.1369    -9.1797    -1.2148 C.3     
  34 C34            2.2786   -12.2499    -1.6065 C.3     
  35 H35            3.0963    -1.0066    -0.4917 H       
  36 H36            2.5675     0.5878    -0.5184 H       
  37 H37           -2.3818    -3.1831     0.1596 H       
  38 H38            2.0147     3.9215    -0.5962 H       
  39 H39           -3.3142     3.4832     0.3426 H       
  40 H40           -2.4000     5.0003     0.4146 H       
  41 H41           -3.0270     3.6276    -2.1696 H       
  42 H42           -4.1841     4.6938    -1.3875 H       
  43 H43           -3.1651     6.0096    -3.0153 H       
  44 H44           -2.3686     6.4935    -1.5030 H       
  45 H45           -1.0056     4.2169    -2.7796 H       
  46 H46           -1.0728     5.6463    -3.8450 H       
  47 H47            0.9492     5.6868    -2.3180 H       
  48 H48           -0.1383     7.0702    -2.0341 H       
  49 H49           -1.1731     5.8881    -0.1335 H       
  50 H50            0.5893     6.0010     0.1021 H       
  51 H51           -2.2194    -5.4748     1.1752 H       
  52 H52           -1.1487    -7.6813     0.9685 H       
  53 H53            0.7163    -3.8024    -1.4455 H       
  54 H54            2.0211    -7.9367     1.2666 H       
  55 H55            0.5522    -8.9241     1.3981 H       
  56 H56            2.9824    -9.8755    -0.1762 H       
  57 H57            2.8172   -10.1711     1.5732 H       
  58 H58            1.7746   -12.0499     0.8305 H       
  59 H59            0.3849   -10.9524     0.8013 H       
  60 H60            2.0059    -9.7440    -2.0630 H       
  61 H61            0.5887   -10.4555    -2.8578 H       
  62 H62           -0.5378    -9.6878    -0.5258 H       
  63 H63           -0.4405    -8.6351    -1.9619 H       
  64 H64            2.2893   -13.2042    -1.0798 H       
  65 H65            2.1262   -12.4244    -2.6716 H       
  66 H66            3.2299   -11.7402    -1.4542 H       
@<TRIPOS>BOND
   1    1    2 1
   2    1    9 ar
   3    1   10 ar
   4    2    3 1
   5    2    6 1
   6    3    4 2
   7    4    5 1
   8    4    8 1
   9    5    6 2
  10    6    7 1
  11    7   35 1
  12    7   36 1
  13    8   20 1
  14    8   37 1
  15    9   13 ar
  16   10   11 ar
  17   11   12 ar
  18   11   14 1
  19   12   13 ar
  20   12   19 1
  21   13   38 1
  22   14   15 1
  23   14   39 1
  24   14   40 1
  25   15   16 1
  26   15   41 1
  27   15   42 1
  28   16   17 1
  29   16   43 1
  30   16   44 1
  31   17   18 1
  32   17   45 1
  33   17   46 1
  34   18   19 1
  35   18   47 1
  36   18   48 1
  37   19   49 1
  38   19   50 1
  39   20   21 ar
  40   20   25 ar
  41   21   22 ar
  42   21   51 1
  43   22   23 ar
  44   22   52 1
  45   23   24 ar
  46   23   26 1
  47   24   25 ar
  48   24   27 1
  49   25   53 1
  50   26   28 1
  51   26   33 1
  52   28   29 1
  53   28   54 1
  54   28   55 1
  55   29   30 1
  56   29   56 1
  57   29   57 1
  58   30   31 1
  59   30   58 1
  60   30   59 1
  61   31   32 1
  62   31   34 1
  63   32   33 1
  64   32   60 1
  65   32   61 1
  66   33   62 1
  67   33   63 1
  68   34   64 1
  69   34   65 1
  70   34   66 1

#	End of record

