#	Name: ASD03430572
#	Creating user name:	WinNT
#	Creation time:	15. 06. 2019 20:41

#	Modifying user name:	WinNT
#	Modification time:	15. 06. 2019 20:41

#	Program:	/corina/corina34_cracker 3.40 0067  02.08.2006

@<TRIPOS>MOLECULE
ASD03430572
  57   62    0    0    0
SMALL
NO_CHARGES


@<TRIPOS>ATOM
   1 N1            -0.0157     1.4931     0.4902 N.am    
   2 C2             0.0409     0.2262     0.9342 C.2     
   3 C3             1.4804    -0.0489     1.3137 C.3     
   4 C4             2.1942     1.2487     1.0120 C.ar    
   5 C5             3.5074     1.6464     1.1357 C.ar    
   6 C6             3.8773     2.9298     0.7697 C.ar    
   7 C7             2.9259     3.8066     0.2814 C.ar    
   8 C8             1.6104     3.4106     0.1572 C.ar    
   9 C9             1.2301     2.1206     0.5229 C.ar    
  10 O10           -0.8869    -0.5507     1.0162 O.2     
  11 O11            1.8746    -1.3116     6.7981 O.3     
  12 C12            1.7707    -0.2290     7.7292 C.3     
  13 C13            0.5758     0.6430     7.3206 C.3     
  14 O14            0.8101     1.1315     5.9953 O.3     
  15 C15            1.2436     0.2244     5.0763 C.ar    
  16 C16            1.7771    -0.9949     5.4779 C.ar    
  17 C17            1.1486     0.5264     3.7266 C.ar    
  18 C18            1.5858    -0.3809     2.7799 C.ar    
  19 C19            2.1207    -1.5966     3.1782 C.ar    
  20 C20            2.2162    -1.9032     4.5270 C.ar    
  21 O21            2.5512    -2.4880     2.2460 O.3     
  22 C22           -1.2434     2.1395     0.0197 C.3     
  23 C23           -0.9991     2.7579    -1.3326 C.ar    
  24 C24           -1.5150     4.0066    -1.6250 C.ar    
  25 C25           -1.2909     4.5739    -2.8655 C.ar    
  26 C26           -0.5505     3.8927    -3.8135 C.ar    
  27 C27           -0.0338     2.6444    -3.5208 C.ar    
  28 C28           -0.2542     2.0790    -2.2787 C.ar    
  29 C29           -2.3417     1.1133    -0.0882 C.ar    
  30 C30           -3.4805     1.2356     0.6859 C.ar    
  31 C31           -4.4879     0.2942     0.5869 C.ar    
  32 C32           -4.3568    -0.7692    -0.2866 C.ar    
  33 C33           -3.2185    -0.8910    -1.0613 C.ar    
  34 C34           -2.2129     0.0527    -0.9655 C.ar    
  35 Br35           4.8027     0.4420     1.8048 Br      
  36 H36            1.8872    -0.8584     0.7077 H       
  37 H37            4.9058     3.2451     0.8657 H       
  38 H38            3.2145     4.8075    -0.0040 H       
  39 H39            0.8735     4.1018    -0.2244 H       
  40 H40            1.6127    -0.6219     8.7336 H       
  41 H41            2.6844     0.3650     7.7058 H       
  42 H42           -0.3368     0.0472     7.3368 H       
  43 H43            0.4801     1.4819     8.0100 H       
  44 H44            0.7325     1.4728     3.4141 H       
  45 H45            2.6332    -2.8500     4.8370 H       
  46 H46            3.4809    -2.3834     2.0015 H       
  47 H47           -1.5392     2.9153     0.7260 H       
  48 H48           -2.0935     4.5388    -0.8844 H       
  49 H49           -1.6946     5.5491    -3.0942 H       
  50 H50           -0.3760     4.3356    -4.7829 H       
  51 H51            0.5444     2.1120    -4.2615 H       
  52 H52            0.1526     1.1053    -2.0488 H       
  53 H53           -3.5829     2.0664     1.3683 H       
  54 H54           -5.3773     0.3894     1.1922 H       
  55 H55           -5.1436    -1.5050    -0.3634 H       
  56 H56           -3.1159    -1.7220    -1.7435 H       
  57 H57           -1.3252    -0.0404    -1.5735 H       
@<TRIPOS>BOND
   1    1    2 am
   2    1    9 1
   3    1   22 1
   4    2    3 1
   5    2   10 2
   6    3    4 1
   7    3   18 1
   8    3   36 1
   9    4    5 ar
  10    4    9 ar
  11    5    6 ar
  12    5   35 1
  13    6    7 ar
  14    6   37 1
  15    7    8 ar
  16    7   38 1
  17    8    9 ar
  18    8   39 1
  19   11   12 1
  20   11   16 1
  21   12   13 1
  22   12   40 1
  23   12   41 1
  24   13   14 1
  25   13   42 1
  26   13   43 1
  27   14   15 1
  28   15   16 ar
  29   15   17 ar
  30   16   20 ar
  31   17   18 ar
  32   17   44 1
  33   18   19 ar
  34   19   20 ar
  35   19   21 1
  36   20   45 1
  37   21   46 1
  38   22   23 1
  39   22   29 1
  40   22   47 1
  41   23   24 ar
  42   23   28 ar
  43   24   25 ar
  44   24   48 1
  45   25   26 ar
  46   25   49 1
  47   26   27 ar
  48   26   50 1
  49   27   28 ar
  50   27   51 1
  51   28   52 1
  52   29   30 ar
  53   29   34 ar
  54   30   31 ar
  55   30   53 1
  56   31   32 ar
  57   31   54 1
  58   32   33 ar
  59   32   55 1
  60   33   34 ar
  61   33   56 1
  62   34   57 1

#	End of record

