#	Name: ASD03950011
#	Creating user name:	WinNT
#	Creation time:	15. 06. 2019 20:48

#	Modifying user name:	WinNT
#	Modification time:	15. 06. 2019 20:48

#	Program:	/corina/corina34_cracker 3.40 0067  02.08.2006

@<TRIPOS>MOLECULE
ASD03950011
  57   61    0    0    0
SMALL
NO_CHARGES


@<TRIPOS>ATOM
   1 N1            -0.0169     1.3942     0.0097 N.pl3   
   2 N2             0.0021    -0.0041     0.0020 N.2     
   3 C3             1.2311    -0.4341    -0.0120 C.2     
   4 C4             2.1093     0.7334    -0.0141 C.ar    
   5 C5             3.4967     0.8990    -0.0268 C.ar    
   6 C6             4.0411     2.1756    -0.0256 C.ar    
   7 C7             3.2112     3.2979    -0.0112 C.ar    
   8 C8             1.8299     3.1501     0.0020 C.ar    
   9 C9             1.2663     1.8606    -0.0000 C.ar    
  10 C10            0.9576     4.3398     0.0177 C.2     
  11 O11           -0.2510     4.2074     0.0293 O.2     
  12 N12            1.5004     5.5734     0.0192 N.am    
  13 N13            1.2107    -4.6672    -0.0344 N.am    
  14 C14            1.6135    -4.0361     1.2298 C.3     
  15 C15            1.1379    -2.5799     1.2275 C.3     
  16 C16            1.6687    -1.8761    -0.0235 C.3     
  17 C17            1.1162    -2.5666    -1.2725 C.3     
  18 C18            1.5916    -4.0227    -1.2986 C.3     
  19 S19            0.3495    -6.0817    -0.0344 S.o2    
  20 O20            0.5923    -6.6993    -1.2909 O.2     
  21 O21            0.6192    -6.7157     1.2083 O.2     
  22 C22           -1.3592    -5.6520    -0.0132 C.ar    
  23 C23           -2.0423    -5.4756    -1.2019 C.ar    
  24 C24           -3.3828    -5.1384    -1.1853 C.ar    
  25 C25           -4.0403    -4.9782     0.0201 C.ar    
  26 C26           -3.3574    -5.1555     1.2088 C.ar    
  27 C27           -2.0180    -5.4969     1.1921 C.ar    
  28 C28            5.5152     2.3486    -0.0391 C.ar    
  29 C29            6.0691     3.6270    -0.0380 C.ar    
  30 C30            7.4405     3.7821    -0.0501 C.ar    
  31 C31            8.2646     2.6713    -0.0639 C.ar    
  32 C32            7.7200     1.3999    -0.0656 C.ar    
  33 C33            6.3500     1.2332    -0.0472 C.ar    
  34 H34           -0.8151     1.9454     0.0166 H       
  35 H35            4.1444     0.0349    -0.0373 H       
  36 H36            3.6454     4.2868    -0.0100 H       
  37 H37            2.4646     5.6790     0.0099 H       
  38 H38            0.9269     6.3556     0.0295 H       
  39 H39            1.1581    -4.5680     2.0651 H       
  40 H40            2.6991    -4.0658     1.3233 H       
  41 H41            0.0483    -2.5531     1.2253 H       
  42 H42            1.5130    -2.0733     2.1168 H       
  43 H43            2.7576    -1.9251    -0.0333 H       
  44 H44            0.0268    -2.5399    -1.2511 H       
  45 H45            1.4759    -2.0505    -2.1627 H       
  46 H46            2.6754    -4.0513    -1.4112 H       
  47 H47            1.1217    -4.5457    -2.1315 H       
  48 H48           -1.5287    -5.6008    -2.1437 H       
  49 H49           -3.9164    -4.9999    -2.1140 H       
  50 H50           -5.0875    -4.7141     0.0331 H       
  51 H51           -3.8710    -5.0300     2.1506 H       
  52 H52           -1.4853    -5.6390     2.1208 H       
  53 H53            5.4265     4.4950    -0.0279 H       
  54 H54            7.8709     4.7727    -0.0492 H       
  55 H55            9.3372     2.7972    -0.0737 H       
  56 H56            8.3680     0.5359    -0.0771 H       
  57 H57            5.9258     0.2400    -0.0437 H       
@<TRIPOS>BOND
   1    1    2 1
   2    1    9 1
   3    1   34 1
   4    2    3 2
   5    3    4 1
   6    3   16 1
   7    4    5 ar
   8    4    9 ar
   9    5    6 ar
  10    5   35 1
  11    6    7 ar
  12    6   28 1
  13    7    8 ar
  14    7   36 1
  15    8    9 ar
  16    8   10 1
  17   10   11 2
  18   10   12 am
  19   12   37 1
  20   12   38 1
  21   13   14 1
  22   13   18 1
  23   13   19 am
  24   14   15 1
  25   14   39 1
  26   14   40 1
  27   15   16 1
  28   15   41 1
  29   15   42 1
  30   16   17 1
  31   16   43 1
  32   17   18 1
  33   17   44 1
  34   17   45 1
  35   18   46 1
  36   18   47 1
  37   19   20 2
  38   19   21 2
  39   19   22 1
  40   22   23 ar
  41   22   27 ar
  42   23   24 ar
  43   23   48 1
  44   24   25 ar
  45   24   49 1
  46   25   26 ar
  47   25   50 1
  48   26   27 ar
  49   26   51 1
  50   27   52 1
  51   28   29 ar
  52   28   33 ar
  53   29   30 ar
  54   29   53 1
  55   30   31 ar
  56   30   54 1
  57   31   32 ar
  58   31   55 1
  59   32   33 ar
  60   32   56 1
  61   33   57 1

#	End of record

