#	Name: ASD03092768
#	Creating user name:	WinNT
#	Creation time:	15. 06. 2019 20:33

#	Modifying user name:	WinNT
#	Modification time:	15. 06. 2019 20:33

#	Program:	/corina/corina34_cracker 3.40 0067  02.08.2006

@<TRIPOS>MOLECULE
ASD03092768
  44   46    0    0    0
SMALL
NO_CHARGES


@<TRIPOS>ATOM
   1 C1            -0.2503     1.3019     0.7819 C.3     
   2 C2            -0.0030     0.0164    -0.0101 C.3     
   3 C3            -1.2485    -0.6383    -0.6111 C.3     
   4 C4             1.3014    -0.0849    -0.8033 C.3     
   5 H5             1.9834     0.7643    -0.7610 H       
   6 C6             1.1168    -0.9071     0.4737 C.3     
   7 H7             0.9664    -1.9811     0.3635 H       
   8 C8             1.8919    -0.4809     1.6938 C.ar    
   9 C9             2.5848     0.7152     1.6895 C.ar    
  10 C10            3.2957     1.1062     2.8086 C.ar    
  11 C11            3.3134     0.3012     3.9323 C.ar    
  12 C12            2.6198    -0.8945     3.9369 C.ar    
  13 C13            1.9053    -1.2834     2.8193 C.ar    
  14 S14            4.2206     0.7990     5.3585 S.o2    
  15 N15            3.1927     1.6830     6.3094 N.am    
  16 O16            4.5149    -0.3884     6.0815 O.2     
  17 O17            5.2209     1.7000     4.9035 O.2     
  18 C18            1.2612    -0.8213    -2.1175 C.2     
  19 O19            1.5833    -1.9896    -2.1682 O.2     
  20 N20            0.8673    -0.1818    -3.2366 N.am    
  21 C21            0.8301    -0.8634    -4.4529 C.2     
  22 C22            1.1571    -2.1693    -4.6532 C.2     
  23 C23            0.9811    -2.4511    -6.0107 C.2     
  24 N24            0.5654    -1.3627    -6.6063 N.2     
  25 N25            0.4569    -0.3482    -5.6466 N.pl3   
  26 H26            0.1673     0.5631    -5.8095 H       
  27 C27            1.2282    -3.7810    -6.6751 C.3     
  28 F28            0.0546    -4.5420    -6.6460 F       
  29 F29            1.6169    -3.5738    -8.0030 F       
  30 F30            2.2424    -4.4617    -5.9931 F       
  31 H31            0.6518     1.9136     0.7724 H       
  32 H32           -1.0705     1.8570     0.3267 H       
  33 H33           -0.5082     1.0508     1.8107 H       
  34 H34           -1.6722     0.0171    -1.3720 H       
  35 H35           -0.9753    -1.5915    -1.0637 H       
  36 H36           -1.9852    -0.8070     0.1744 H       
  37 H37            2.5710     1.3442     0.8116 H       
  38 H38            3.8377     2.0404     2.8050 H       
  39 H39            2.6339    -1.5235     4.8147 H       
  40 H40            1.3603    -2.2158     2.8242 H       
  41 H41            2.2772     1.8324     6.0256 H       
  42 H42            3.5060     2.0514     7.1503 H       
  43 H43            0.6097     0.7525    -3.1961 H       
  44 H44            1.4932    -2.8640    -3.8977 H       
@<TRIPOS>BOND
   1    1    2 1
   2    1   31 1
   3    1   32 1
   4    1   33 1
   5    2    6 1
   6    2    3 1
   7    2    4 1
   8    3   34 1
   9    3   35 1
  10    3   36 1
  11    4    5 1
  12    4    6 1
  13    4   18 1
  14    6    7 1
  15    6    8 1
  16    8   13 ar
  17    8    9 ar
  18    9   10 ar
  19    9   37 1
  20   10   11 ar
  21   10   38 1
  22   11   12 ar
  23   11   14 1
  24   12   13 ar
  25   12   39 1
  26   13   40 1
  27   14   15 am
  28   14   16 2
  29   14   17 2
  30   15   41 1
  31   15   42 1
  32   18   19 2
  33   18   20 am
  34   20   21 1
  35   20   43 1
  36   21   25 1
  37   21   22 2
  38   22   23 1
  39   22   44 1
  40   23   24 2
  41   23   27 1
  42   24   25 1
  43   25   26 1
  44   27   28 1
  45   27   29 1
  46   27   30 1

#	End of record

