#	Name: ASD01202032
#	Creating user name:	WinNT
#	Creation time:	15. 06. 2019 19:09

#	Modifying user name:	WinNT
#	Modification time:	15. 06. 2019 19:09

#	Program:	/corina/corina34_cracker 3.40 0067  02.08.2006

@<TRIPOS>MOLECULE
ASD01202032
  45   48    0    0    0
SMALL
NO_CHARGES


@<TRIPOS>ATOM
   1 C1            -0.3846     1.0457    -0.4419 C.2     
   2 C2            -0.2496    -0.3999    -0.2322 C.2     
   3 C3             0.8882     1.5206    -0.5856 C.2     
   4 C4            -1.6352     1.8240    -0.4933 C.2     
   5 C5             1.0814    -0.6570    -0.2692 C.2     
   6 O6             1.7410     0.4969    -0.4801 O.3     
   7 O7            -1.5965     3.0257    -0.6760 O.2     
   8 N8            -2.8217     1.2038    -0.3379 N.am    
   9 C9             1.7056    -1.9869    -0.1037 C.ar    
  10 C10           -4.0004     1.9373    -0.3863 C.2     
  11 S11           -4.0931     3.6228    -0.6423 S.3     
  12 N12           -5.1835     1.4433    -0.2500 N.2     
  13 C13           -5.8543     3.5541    -0.5346 C.2     
  14 C14           -6.2194     2.2858    -0.3221 C.2     
  15 H15           -2.8525     0.2453    -0.1922 H       
  16 C16            3.0926    -2.1211    -0.1624 C.ar    
  17 C17            3.6704    -3.3700    -0.0060 C.ar    
  18 C18            2.8700    -4.4839     0.2080 C.ar    
  19 C19            1.4947    -4.3523     0.2665 C.ar    
  20 C20            0.9092    -3.1119     0.1177 C.ar    
  21 C21            5.7190    -3.1152     1.0165 C.2     
  22 C22            7.2256    -3.1257     0.9843 C.3     
  23 O23            5.1386    -2.7558     2.0134 O.2     
  24 C24            1.2676     2.9594    -0.8240 C.3     
  25 C25           -7.7399     2.1979    -0.2223 C.3     
  26 C26           -8.2591     3.5103    -0.8433 C.3     
  27 C27           -7.0682     4.4616    -0.6098 C.3     
  28 O28            5.0217    -3.5052    -0.0626 O.3     
  29 H29           -1.0464    -1.1128    -0.0797 H       
  30 H30            3.7141    -1.2539    -0.3297 H       
  31 H31            3.3231    -5.4568     0.3289 H       
  32 H32            0.8773    -5.2226     0.4333 H       
  33 H33           -0.1653    -3.0126     0.1640 H       
  34 H34            7.6120    -2.7795     1.9429 H       
  35 H35            7.5779    -4.1398     0.7954 H       
  36 H36            7.5767    -2.4655     0.1912 H       
  37 H37            1.4166     3.4592     0.1331 H       
  38 H38            2.1902     3.0007    -1.4030 H       
  39 H39            0.4704     3.4589    -1.3746 H       
  40 H40           -8.1074     1.3408    -0.7867 H       
  41 H41           -8.0473     2.1251     0.8209 H       
  42 H42           -8.4544     3.3876    -1.9086 H       
  43 H43           -9.1498     3.8626    -0.3230 H       
  44 H44           -7.1925     5.0018     0.3288 H       
  45 H45           -6.9720     5.1602    -1.4409 H       
@<TRIPOS>BOND
   1    1    2 1
   2    1    3 2
   3    1    4 1
   4    2    5 2
   5    2   29 1
   6    3   24 1
   7    3    6 1
   8    4    7 2
   9    4    8 am
  10    5    9 1
  11    5    6 1
  12    8   15 1
  13    8   10 1
  14    9   16 ar
  15    9   20 ar
  16   10   12 2
  17   10   11 1
  18   11   13 1
  19   12   14 1
  20   13   14 2
  21   13   27 1
  22   14   25 1
  23   16   17 ar
  24   16   30 1
  25   17   18 ar
  26   17   28 1
  27   18   19 ar
  28   18   31 1
  29   19   20 ar
  30   19   32 1
  31   20   33 1
  32   21   22 1
  33   21   23 2
  34   21   28 1
  35   22   34 1
  36   22   35 1
  37   22   36 1
  38   24   37 1
  39   24   38 1
  40   24   39 1
  41   25   26 1
  42   25   40 1
  43   25   41 1
  44   26   27 1
  45   26   42 1
  46   26   43 1
  47   27   44 1
  48   27   45 1

#	End of record

