#	Name: ASD01901007
#	Creating user name:	WinNT
#	Creation time:	15. 06. 2019 19:53

#	Modifying user name:	WinNT
#	Modification time:	15. 06. 2019 19:53

#	Program:	/corina/corina34_cracker 3.40 0067  02.08.2006

@<TRIPOS>MOLECULE
ASD01901007
  25   26    0    0    0
SMALL
NO_CHARGES


@<TRIPOS>ATOM
   1 C1            -0.0159     1.3196     0.0093 C.ar    
   2 N2             0.0021    -0.0041     0.0020 N.ar    
   3 C3             1.1599    -0.6665    -0.0126 C.ar    
   4 C4             2.3576     0.0620    -0.0201 C.ar    
   5 C5             2.2880     1.4424    -0.0120 C.ar    
   6 N6             1.1024     2.0321     0.0024 N.ar    
   7 S7            -1.5664     2.1566     0.0211 S.3     
   8 C8             1.1796    -2.1388    -0.0202 C.2     
   9 C9             0.0253    -2.8261    -0.0124 C.2     
  10 C10            0.0450    -4.2995    -0.0200 C.ar    
  11 C11           -1.1537    -5.0178    -0.0120 C.ar    
  12 C12           -1.1274    -6.3967    -0.0197 C.ar    
  13 C13            0.0821    -7.0690    -0.0353 C.ar    
  14 C14            1.2731    -6.3644    -0.0429 C.ar    
  15 C15            1.2625    -4.9853    -0.0412 C.ar    
  16 H16            3.3120    -0.4433    -0.0315 H       
  17 H17            3.1915     2.0342    -0.0174 H       
  18 H18           -1.7753     2.2654     1.4113 H       
  19 H19            2.1220    -2.6662    -0.0320 H       
  20 H20           -0.9171    -2.2987    -0.0006 H       
  21 H21           -2.0984    -4.4945     0.0005 H       
  22 H22           -2.0530    -6.9532    -0.0132 H       
  23 H23            0.0965    -8.1488    -0.0413 H       
  24 H24            2.2132    -6.8959    -0.0547 H       
  25 H25            2.1928    -4.4368    -0.0516 H       
@<TRIPOS>BOND
   1    1    2 ar
   2    1    6 ar
   3    1    7 1
   4    2    3 ar
   5    3    4 ar
   6    3    8 1
   7    4    5 ar
   8    4   16 1
   9    5    6 ar
  10    5   17 1
  11    7   18 1
  12    8    9 2
  13    8   19 1
  14    9   10 1
  15    9   20 1
  16   10   11 ar
  17   10   15 ar
  18   11   12 ar
  19   11   21 1
  20   12   13 ar
  21   12   22 1
  22   13   14 ar
  23   13   23 1
  24   14   15 ar
  25   14   24 1
  26   15   25 1

#	End of record

