#	Name: ASD03320004
#	Creating user name:	WinNT
#	Creation time:	15. 06. 2019 20:35

#	Modifying user name:	WinNT
#	Modification time:	15. 06. 2019 20:35

#	Program:	/corina/corina34_cracker 3.40 0067  02.08.2006

@<TRIPOS>MOLECULE
ASD03320004
  59   60    0    0    0
SMALL
NO_CHARGES


@<TRIPOS>ATOM
   1 C1            -0.0167     1.3804     0.0096 C.ar    
   2 C2             0.0021    -0.0041     0.0020 C.ar    
   3 C3             1.2201    -0.6810    -0.0132 C.ar    
   4 C4             2.4074     0.0358    -0.0207 C.ar    
   5 C5             2.3800     1.4181    -0.0130 C.ar    
   6 C6             1.1715     2.0887     0.0021 C.ar    
   7 C7             3.6709     2.1956    -0.0211 C.3     
   8 S8             4.1726     2.5168    -1.7345 S.o2    
   9 C9             5.6776     3.4215    -1.5898 C.2     
  10 O10            4.5510     1.3078    -2.3783 O.2     
  11 O11            3.2748     3.4270    -2.3547 O.2     
  12 C12            6.8134     2.8945    -2.0292 C.2     
  13 N13            1.2452    -2.0803    -0.0205 N.pl3   
  14 O14           -1.1655    -0.7017     0.0098 O.3     
  15 C15           -2.3754     0.0585     0.0259 C.3     
  16 C16            9.2075     3.0475    -1.3506 C.ar    
  17 C17            8.0742     3.6524    -1.9079 C.ar    
  18 C18            8.1424     4.9792    -2.3501 C.ar    
  19 C19            9.3279     5.6840    -2.2339 C.ar    
  20 C20           10.4474     5.0785    -1.6805 C.ar    
  21 C21           10.3851     3.7655    -1.2351 C.ar    
  22 O22            9.1497     1.7608    -0.9193 O.3     
  23 C23           10.3443     1.2092    -0.3619 C.3     
  24 O24            7.0478     5.5731    -2.8923 O.3     
  25 C25            7.1909     6.9286    -3.3216 C.3     
  26 O26           11.6080     5.7759    -1.5693 O.3     
  27 C27           12.7221     5.0933    -0.9907 C.3     
  28 C28            2.5268    -2.7899    -0.0365 C.3     
  29 C29            2.3483    -4.1628     0.5588 C.2     
  30 C30            3.0199    -2.9197    -1.4791 C.3     
  31 O31            1.2621    -4.5126     0.9557 O.2     
  32 O32            3.3961    -4.9970     0.6481 O.3     
  33 H33           -0.9593     1.9075     0.0169 H       
  34 H34            3.3531    -0.4857    -0.0321 H       
  35 H35            1.1548     3.1685     0.0080 H       
  36 H36            3.5279     3.1427     0.4992 H       
  37 H37            4.4461     1.6179     0.4822 H       
  38 H38            5.6757     4.4049    -1.1434 H       
  39 H39            6.8154     1.9110    -2.4756 H       
  40 H40            0.4140    -2.5803    -0.0150 H       
  41 H41           -3.2297    -0.6184     0.0308 H       
  42 H42           -2.4008     0.6821     0.9196 H       
  43 H43           -2.4185     0.6916    -0.8603 H       
  44 H44            9.3820     6.7074    -2.5749 H       
  45 H45           11.2598     3.3003    -0.8052 H       
  46 H46           10.1612     0.1785    -0.0581 H       
  47 H47           11.1381     1.2324    -1.1085 H       
  48 H48           10.6447     1.7959     0.5063 H       
  49 H49            6.2453     7.2809    -3.7338 H       
  50 H50            7.4712     7.5511    -2.4719 H       
  51 H51            7.9652     6.9877    -4.0864 H       
  52 H52           12.4702     4.7804     0.0226 H       
  53 H53           12.9636     4.2169    -1.5922 H       
  54 H54           13.5824     5.7620    -0.9612 H       
  55 H55            3.2581    -2.2324     0.5486 H       
  56 H56            3.9734    -3.4477    -1.4910 H       
  57 H57            2.2885    -3.4772    -2.0643 H       
  58 H58            3.1489    -1.9267    -1.9097 H       
  59 H59            3.2327    -5.8670     1.0372 H       
@<TRIPOS>BOND
   1    1    2 ar
   2    1    6 ar
   3    1   33 1
   4    2    3 ar
   5    2   14 1
   6    3    4 ar
   7    3   13 1
   8    4    5 ar
   9    4   34 1
  10    5    6 ar
  11    5    7 1
  12    6   35 1
  13    7    8 1
  14    7   36 1
  15    7   37 1
  16    8    9 1
  17    8   10 2
  18    8   11 2
  19    9   12 2
  20    9   38 1
  21   12   17 1
  22   12   39 1
  23   13   28 1
  24   13   40 1
  25   14   15 1
  26   15   41 1
  27   15   42 1
  28   15   43 1
  29   16   17 ar
  30   16   22 1
  31   16   21 ar
  32   17   18 ar
  33   18   19 ar
  34   18   24 1
  35   19   20 ar
  36   19   44 1
  37   20   21 ar
  38   20   26 1
  39   21   45 1
  40   22   23 1
  41   23   46 1
  42   23   47 1
  43   23   48 1
  44   24   25 1
  45   25   49 1
  46   25   50 1
  47   25   51 1
  48   26   27 1
  49   27   52 1
  50   27   53 1
  51   27   54 1
  52   28   29 1
  53   28   30 1
  54   28   55 1
  55   29   31 2
  56   29   32 1
  57   30   56 1
  58   30   57 1
  59   30   58 1
  60   32   59 1

#	End of record

