#	Name: ASD03330919
#	Creating user name:	WinNT
#	Creation time:	15. 06. 2019 20:38

#	Modifying user name:	WinNT
#	Modification time:	15. 06. 2019 20:38

#	Program:	/corina/corina34_cracker 3.40 0067  02.08.2006

@<TRIPOS>MOLECULE
ASD03330919
  59   61    0    0    0
SMALL
NO_CHARGES


@<TRIPOS>ATOM
   1 N1            -0.2192     1.1830    -0.6304 N.pl3   
   2 C2            -0.2710    -0.1436    -0.3700 C.2     
   3 C3             0.9179    -1.0447    -0.1607 C.3     
   4 N4             1.8505    -0.4033     0.7791 N.3     
   5 C5             2.8087     0.4507     0.0744 C.3     
   6 C6             2.1653     1.0941    -1.1509 C.3     
   7 C7             1.0021     1.9891    -0.7151 C.3     
   8 C8            -1.5022     1.6214    -0.7845 C.2     
   9 N9            -2.3153     0.6071    -0.6077 N.2     
  10 C10           -1.5866    -0.4987    -0.3468 C.2     
  11 C11           -2.1182    -1.8480    -0.0841 C.2     
  12 O12           -1.3560    -2.7690     0.1392 O.2     
  13 N13           -3.4490    -2.0612    -0.0913 N.am    
  14 C14            2.5430    -1.4056     1.6000 C.3     
  15 C15           -5.3356    -3.5403    -0.4683 C.2     
  16 C16           -3.9774    -3.4024     0.1698 C.3     
  17 C17           -4.0991    -3.6175     1.6797 C.3     
  18 C18           -5.1235    -2.6367     2.2537 C.3     
  19 O19           -6.0183    -2.5563    -0.6599 O.2     
  20 N20           -5.7917    -4.7570    -0.8261 N.am    
  21 C21           -7.1552    -4.9059    -1.3407 C.3     
  22 C22           -4.5559    -5.0515     1.9554 C.3     
  23 C23           -2.7396    -3.3795     2.3400 C.3     
  24 C24           -3.5208     4.5981    -1.8869 C.ar    
  25 C25           -3.1814     3.2874    -1.6073 C.ar    
  26 C26           -1.9087     3.0095    -1.0983 C.ar    
  27 C27           -1.0305     4.0786    -0.8932 C.ar    
  28 C28           -1.4502     5.3599    -1.1990 C.ar    
  29 N29           -2.6615     5.5800    -1.6788 N.ar    
  30 F30           -0.6107     6.4004    -1.0052 F       
  31 F31           -4.7453     4.8780    -2.3842 F       
  32 H32            0.5848    -1.9977     0.2502 H       
  33 H33            1.4195    -1.2132    -1.1136 H       
  34 H34            3.1556     1.2330     0.7494 H       
  35 H35            3.6602    -0.1516    -0.2426 H       
  36 H36            2.9075     1.6947    -1.6767 H       
  37 H37            1.7935     0.3149    -1.8163 H       
  38 H38            0.8625     2.7863    -1.4452 H       
  39 H39            1.2213     2.4219     0.2610 H       
  40 H40           -4.0569    -1.3266    -0.2694 H       
  41 H41            3.0489    -2.1203     0.9508 H       
  42 H42            3.2765    -0.9103     2.2362 H       
  43 H43            1.8176    -1.9299     2.2220 H       
  44 H44           -3.3014    -4.1473    -0.2500 H       
  45 H45           -6.0921    -2.8063     1.7832 H       
  46 H46           -5.2103    -2.7900     3.3293 H       
  47 H47           -4.7981    -1.6151     2.0573 H       
  48 H48           -5.2171    -5.5341    -0.7430 H       
  49 H49           -7.3427    -5.9538    -1.5750 H       
  50 H50           -7.8669    -4.5692    -0.5869 H       
  51 H51           -7.2706    -4.3056    -2.2432 H       
  52 H52           -3.7892    -5.7484     1.6169 H       
  53 H53           -4.7184    -5.1817     3.0253 H       
  54 H54           -5.4854    -5.2459     1.4204 H       
  55 H55           -2.4142    -2.3579     2.1436 H       
  56 H56           -2.8263    -3.5327     3.4157 H       
  57 H57           -2.0097    -4.0782     1.9312 H       
  58 H58           -3.8888     2.4897    -1.7795 H       
  59 H59           -0.0390     3.9058    -0.5014 H       
@<TRIPOS>BOND
   1    1    2 1
   2    1    7 1
   3    1    8 1
   4    2    3 1
   5    2   10 2
   6    3    4 1
   7    3   32 1
   8    3   33 1
   9    4    5 1
  10    4   14 1
  11    5    6 1
  12    5   34 1
  13    5   35 1
  14    6    7 1
  15    6   36 1
  16    6   37 1
  17    7   38 1
  18    7   39 1
  19    8    9 2
  20    8   26 1
  21    9   10 1
  22   10   11 1
  23   11   12 2
  24   11   13 am
  25   13   16 1
  26   13   40 1
  27   14   41 1
  28   14   42 1
  29   14   43 1
  30   15   19 2
  31   15   20 am
  32   15   16 1
  33   16   17 1
  34   16   44 1
  35   17   18 1
  36   17   22 1
  37   17   23 1
  38   18   45 1
  39   18   46 1
  40   18   47 1
  41   20   21 1
  42   20   48 1
  43   21   49 1
  44   21   50 1
  45   21   51 1
  46   22   52 1
  47   22   53 1
  48   22   54 1
  49   23   55 1
  50   23   56 1
  51   23   57 1
  52   24   25 ar
  53   24   29 ar
  54   24   31 1
  55   25   26 ar
  56   25   58 1
  57   26   27 ar
  58   27   28 ar
  59   27   59 1
  60   28   29 ar
  61   28   30 1

#	End of record

