#	Name: ASD07930922
#	Creating user name:	WinNT
#	Creation time:	15. 06. 2019 21:13

#	Modifying user name:	WinNT
#	Modification time:	15. 06. 2019 21:13

#	Program:	/corina/corina34_cracker 3.40 0067  02.08.2006

@<TRIPOS>MOLECULE
ASD07930922
  15   15    0    0    0
SMALL
NO_CHARGES


@<TRIPOS>ATOM
   1 C1            -0.0173     1.4248     0.0099 C.3     
   2 O2             0.0021    -0.0041     0.0020 O.3     
   3 C3             1.3965     1.9464    -0.0008 C.ar    
   4 C4             2.0272     2.1898    -1.2093 C.ar    
   5 C5             3.3296     2.6702    -1.2069 C.ar    
   6 C6             3.9500     2.8882     0.0145 C.ar    
   7 C7             3.2556     2.6217     1.1803 C.ar    
   8 N8             2.0170     2.1709     1.1406 N.ar    
   9 F9             1.3837     1.9623    -2.3752 F       
  10 Br10           5.7233     3.5411     0.0844 Br      
  11 H11           -0.5445     1.7859    -0.8732 H       
  12 H12           -0.5275     1.7763     0.9067 H       
  13 H13           -0.8759    -0.4094     0.0082 H       
  14 H14            3.8474     2.8691    -2.1336 H       
  15 H15            3.7321     2.7886     2.1350 H       
@<TRIPOS>BOND
   1    1    2 1
   2    1    3 1
   3    1   11 1
   4    1   12 1
   5    2   13 1
   6    3    4 ar
   7    3    8 ar
   8    4    5 ar
   9    4    9 1
  10    5    6 ar
  11    5   14 1
  12    6    7 ar
  13    6   10 1
  14    7    8 ar
  15    7   15 1

#	End of record

