#	Name: ASD00171092
#	Creating user name:	WinNT
#	Creation time:	15. 06. 2019 18:32

#	Modifying user name:	WinNT
#	Modification time:	15. 06. 2019 18:32

#	Program:	/corina/corina34_cracker 3.40 0067  02.08.2006

@<TRIPOS>MOLECULE
ASD00171092
  52   55    0    0    0
SMALL
NO_CHARGES


@<TRIPOS>ATOM
   1 C1            -0.5120     1.1116    -0.3228 C.2     
   2 N2            -0.4291    -0.1618     0.1111 N.am    
   3 C3            -1.6377    -0.9837     0.2747 C.3     
   4 C4            -1.4262    -2.3120    -0.4596 C.3     
   5 N5            -0.1824    -2.9356     0.0115 N.3     
   6 C6             0.9851    -2.1030    -0.3072 C.3     
   7 C7             0.8730    -0.7681     0.4276 C.3     
   8 C8            -0.0303    -4.2887    -0.5398 C.3     
   9 C9             1.3553    -4.8002    -0.2406 C.2     
  10 C10            2.3424    -4.7895    -1.1227 C.2     
  11 S11            3.8088    -5.4589    -0.4303 S.3     
  12 C12            3.0578    -5.7512     1.0715 C.2     
  13 C13            1.7431    -5.3473     1.0426 C.2     
  14 N14            3.6835    -6.3112     2.1668 N.pl3   
  15 C15            0.8329    -5.4669     2.1814 C.2     
  16 O16            0.7432    -4.5582     2.9871 O.2     
  17 C17            0.0218    -6.6912     2.3543 C.ar    
  18 C18           -0.9320    -6.7621     3.3713 C.ar    
  19 C19           -1.6856    -7.9063     3.5274 C.ar    
  20 C20           -1.4976    -8.9841     2.6779 C.ar    
  21 C21           -0.5524    -8.9197     1.6673 C.ar    
  22 C22            0.2029    -7.7785     1.4976 C.ar    
  23 Cl23          -2.4497   -10.4214     2.8809 Cl      
  24 C24            0.6974     1.9560    -0.3678 C.ar    
  25 O25           -1.5824     1.5630    -0.6817 O.2     
  26 C26            1.5679     1.9932     0.7242 C.ar    
  27 C27            2.6967     2.7836     0.6764 C.ar    
  28 C28            2.9697     3.5423    -0.4535 C.ar    
  29 C29            2.1113     3.5106    -1.5401 C.ar    
  30 C30            0.9800     2.7181    -1.5067 C.ar    
  31 F31            0.1431     2.6876    -2.5669 F       
  32 Cl32           3.7788     2.8304     2.0330 Cl      
  33 F33            4.0770     4.3152    -0.4933 F       
  34 H34           -1.8102    -1.1744     1.3340 H       
  35 H35           -2.4953    -0.4626    -0.1508 H       
  36 H36           -2.2658    -2.9771    -0.2575 H       
  37 H37           -1.3574    -2.1279    -1.5317 H       
  38 H38            1.8943    -2.6165     0.0055 H       
  39 H39            1.0203    -1.9218    -1.3814 H       
  40 H40            1.6756    -0.1045     0.1059 H       
  41 H41            0.9408    -0.9351     1.5026 H       
  42 H42           -0.7678    -4.9509    -0.0863 H       
  43 H43           -0.1821    -4.2606    -1.6188 H       
  44 H44            2.2563    -4.4190    -2.1335 H       
  45 H45            4.5918    -6.6427     2.0896 H       
  46 H46            3.2150    -6.3732     3.0139 H       
  47 H47           -1.0790    -5.9227     4.0347 H       
  48 H48           -2.4238    -7.9623     4.3138 H       
  49 H49           -0.4099    -9.7633     1.0082 H       
  50 H50            0.9393    -7.7294     0.7091 H       
  51 H51            1.3569     1.4042     1.6045 H       
  52 H52            2.3288     4.1033    -2.4164 H       
@<TRIPOS>BOND
   1    1    2 am
   2    1   24 1
   3    1   25 2
   4    2    3 1
   5    2    7 1
   6    3    4 1
   7    3   34 1
   8    3   35 1
   9    4    5 1
  10    4   36 1
  11    4   37 1
  12    5    6 1
  13    5    8 1
  14    6    7 1
  15    6   38 1
  16    6   39 1
  17    7   40 1
  18    7   41 1
  19    8    9 1
  20    8   42 1
  21    8   43 1
  22    9   10 2
  23    9   13 1
  24   10   11 1
  25   10   44 1
  26   11   12 1
  27   12   13 2
  28   12   14 1
  29   13   15 1
  30   14   45 1
  31   14   46 1
  32   15   16 2
  33   15   17 1
  34   17   18 ar
  35   17   22 ar
  36   18   19 ar
  37   18   47 1
  38   19   20 ar
  39   19   48 1
  40   20   21 ar
  41   20   23 1
  42   21   22 ar
  43   21   49 1
  44   22   50 1
  45   24   26 ar
  46   24   30 ar
  47   26   27 ar
  48   26   51 1
  49   27   28 ar
  50   27   32 1
  51   28   29 ar
  52   28   33 1
  53   29   30 ar
  54   29   52 1
  55   30   31 1

#	End of record

