#	Name: ASD01814582
#	Creating user name:	WinNT
#	Creation time:	15. 06. 2019 19:32

#	Modifying user name:	WinNT
#	Modification time:	15. 06. 2019 19:32

#	Program:	/corina/corina34_cracker 3.40 0067  02.08.2006

@<TRIPOS>MOLECULE
ASD01814582
  60   64    0    0    0
SMALL
NO_CHARGES


@<TRIPOS>ATOM
   1 N1            -0.9395     1.9123    -1.4682 N.2     
   2 C2            -1.2127     0.7655    -2.0444 C.2     
   3 C3            -0.3630     0.2522    -3.0364 C.2     
   4 C4             0.7424     0.9515    -3.3941 C.2     
   5 N5             1.0031     2.1424    -2.7783 N.pl3   
   6 C6             0.1496     2.6116    -1.8135 C.2     
   7 N7             2.0357     3.0751    -2.9206 N.2     
   8 C8             1.8287     4.0717    -2.0836 C.2     
   9 C9             0.6650     3.8254    -1.3745 C.2     
  10 C10            2.4070     5.3870    -1.6224 C.3     
  11 N11            1.5207     5.9254    -0.5860 N.am    
  12 C12            0.4264     4.9642    -0.4166 C.3     
  13 C13            1.6813     7.0839     0.0838 C.2     
  14 O14            0.8200     7.4663     0.8524 O.2     
  15 C15            2.9011     7.8874    -0.1152 C.ar    
  16 C16            2.8132     9.2807    -0.2490 C.ar    
  17 C17            4.1514     7.2652    -0.1657 C.ar    
  18 C18            5.2878     8.0205    -0.3514 C.ar    
  19 C19            5.1973     9.3988    -0.4888 C.ar    
  20 C20            3.9654    10.0271    -0.4353 C.ar    
  21 O21            1.6048     9.8950    -0.1968 O.3     
  22 Cl22          -0.7237    -1.2652    -3.7986 Cl      
  23 F23            6.3179    10.1312    -0.6701 F       
  24 C24            1.6709     0.4215    -4.4563 C.3     
  25 C25           -2.4435    -0.0038    -1.6390 C.3     
  26 C26            1.6030    11.3240    -0.1967 C.3     
  27 C27            1.5950    13.3649    -1.6349 C.3     
  28 C28            1.6587    11.8359    -1.6387 C.3     
  29 C29            0.3215    11.8340     0.4685 C.3     
  30 C30            0.2966    13.3631     0.4112 C.3     
  31 N31            0.3510    13.8027    -0.9889 N.3     
  32 C32            0.1897    15.2593    -1.0900 C.3     
  33 C33           -1.2180    15.6493    -0.6348 C.3     
  34 H34            3.4035     5.2281    -1.2103 H       
  35 H35            2.4596     6.0815    -2.4608 H       
  36 H36           -0.5258     5.4440    -0.6430 H       
  37 H37            0.4186     4.5903     0.6072 H       
  38 H38            4.2263     6.1931    -0.0589 H       
  39 H39            6.2535     7.5386    -0.3899 H       
  40 H40            3.9022    11.1002    -0.5391 H       
  41 H41            1.2952    -0.5334    -4.8237 H       
  42 H42            1.7235     1.1327    -5.2806 H       
  43 H43            2.6655     0.2820    -4.0328 H       
  44 H44           -2.9756     0.5452    -0.8621 H       
  45 H45           -3.0940    -0.1309    -2.5044 H       
  46 H46           -2.1513    -0.9820    -1.2573 H       
  47 H47            2.4696    11.6894     0.3543 H       
  48 H48            2.4487    13.7626    -1.0862 H       
  49 H49            1.6200    13.7320    -2.6610 H       
  50 H50            2.5894    11.5116    -2.1043 H       
  51 H51            0.8128    11.4378    -2.1991 H       
  52 H52           -0.5454    11.4359    -0.0588 H       
  53 H53            0.2969    11.5084     1.5084 H       
  54 H54           -0.6213    13.7289     0.8712 H       
  55 H55            1.1564    13.7608     0.9504 H       
  56 H56            0.9263    15.7514    -0.4550 H       
  57 H57            0.3361    15.5701    -2.1245 H       
  58 H58           -1.9547    15.1572    -1.2698 H       
  59 H59           -1.3645    15.3384     0.3996 H       
  60 H60           -1.3378    16.7301    -0.7098 H       
@<TRIPOS>BOND
   1    1    2 2
   2    1    6 1
   3    2    3 1
   4    2   25 1
   5    3    4 2
   6    3   22 1
   7    4    5 1
   8    4   24 1
   9    5    7 1
  10    5    6 1
  11    6    9 2
  12    7    8 2
  13    8   10 1
  14    8    9 1
  15    9   12 1
  16   10   11 1
  17   10   34 1
  18   10   35 1
  19   11   12 1
  20   11   13 am
  21   12   36 1
  22   12   37 1
  23   13   14 2
  24   13   15 1
  25   15   17 ar
  26   15   16 ar
  27   16   20 ar
  28   16   21 1
  29   17   18 ar
  30   17   38 1
  31   18   19 ar
  32   18   39 1
  33   19   20 ar
  34   19   23 1
  35   20   40 1
  36   21   26 1
  37   24   41 1
  38   24   42 1
  39   24   43 1
  40   25   44 1
  41   25   45 1
  42   25   46 1
  43   26   29 1
  44   26   28 1
  45   26   47 1
  46   27   28 1
  47   27   31 1
  48   27   48 1
  49   27   49 1
  50   28   50 1
  51   28   51 1
  52   29   30 1
  53   29   52 1
  54   29   53 1
  55   30   31 1
  56   30   54 1
  57   30   55 1
  58   31   32 1
  59   32   33 1
  60   32   56 1
  61   32   57 1
  62   33   58 1
  63   33   59 1
  64   33   60 1

#	End of record

