#	Name: ASD05213002
#	Creating user name:	WinNT
#	Creation time:	15. 06. 2019 20:57

#	Modifying user name:	WinNT
#	Modification time:	15. 06. 2019 20:57

#	Program:	/corina/corina34_cracker 3.40 0067  02.08.2006

@<TRIPOS>MOLECULE
ASD05213002
  36   38    0    0    0
SMALL
NO_CHARGES


@<TRIPOS>ATOM
   1 C1            -0.0164     1.3567     0.0095 C.ar    
   2 C2             0.0021    -0.0041     0.0020 C.ar    
   3 C3             1.2327    -0.6827    -0.0133 C.ar    
   4 C4             2.4375     0.0635    -0.0209 C.ar    
   5 C5             2.3784     1.4676    -0.0123 C.ar    
   6 C6             1.1685     2.0906     0.0021 C.ar    
   7 C7             1.2920    -2.0868    -0.0209 C.ar    
   8 C8             2.5019    -2.7096    -0.0354 C.ar    
   9 C9             3.6868    -1.9758    -0.0424 C.ar    
  10 C10            3.6681    -0.6150    -0.0363 C.ar    
  11 C11            3.6482     2.2792    -0.0196 C.3     
  12 C12            4.1248     2.4535    -1.4385 C.2     
  13 N13            5.2506     3.1505    -1.6904 N.am    
  14 C14            5.6892     3.3108    -2.9961 C.2     
  15 S15            4.8992     2.6799    -4.3683 S.3     
  16 C16            6.0986     3.3468    -5.4616 C.2     
  17 C17            7.0327     4.0056    -4.7907 C.2     
  18 C18            6.8144     4.0035    -3.3608 C.2     
  19 C19            7.7067     4.6638    -2.4029 C.2     
  20 O20            7.4597     4.6211    -1.2119 O.2     
  21 N21            8.8004     5.3181    -2.8413 N.am    
  22 O22            3.4954     1.9666    -2.3538 O.2     
  23 H23           -0.9634     1.8758     0.0168 H       
  24 H24           -0.9241    -0.5595     0.0082 H       
  25 H25            1.1259     3.1697     0.0083 H       
  26 H26            0.3820    -2.6686    -0.0149 H       
  27 H27            2.5446    -3.7888    -0.0412 H       
  28 H28            4.6339    -2.4947    -0.0532 H       
  29 H29            4.5942    -0.0594    -0.0422 H       
  30 H30            3.4568     3.2572     0.4222 H       
  31 H31            4.4131     1.7623     0.5598 H       
  32 H32            5.7539     3.5399    -0.9584 H       
  33 H33            6.0788     3.2350    -6.5356 H       
  34 H34            7.8698     4.4973    -5.2638 H       
  35 H35            8.9973     5.3522    -3.7905 H       
  36 H36            9.3907     5.7549    -2.2076 H       
@<TRIPOS>BOND
   1    1    2 ar
   2    1    6 ar
   3    1   23 1
   4    2    3 ar
   5    2   24 1
   6    3    4 ar
   7    3    7 ar
   8    4    5 ar
   9    4   10 ar
  10    5    6 ar
  11    5   11 1
  12    6   25 1
  13    7    8 ar
  14    7   26 1
  15    8    9 ar
  16    8   27 1
  17    9   10 ar
  18    9   28 1
  19   10   29 1
  20   11   12 1
  21   11   30 1
  22   11   31 1
  23   12   13 am
  24   12   22 2
  25   13   14 1
  26   13   32 1
  27   14   15 1
  28   14   18 2
  29   15   16 1
  30   16   17 2
  31   16   33 1
  32   17   18 1
  33   17   34 1
  34   18   19 1
  35   19   20 2
  36   19   21 am
  37   21   35 1
  38   21   36 1

#	End of record

