#	Name: ASD05872010
#	Creating user name:	WinNT
#	Creation time:	15. 06. 2019 21:04

#	Modifying user name:	WinNT
#	Modification time:	15. 06. 2019 21:04

#	Program:	/corina/corina34_cracker 3.40 0067  02.08.2006

@<TRIPOS>MOLECULE
ASD05872010
  35   36    0    0    0
SMALL
NO_CHARGES


@<TRIPOS>ATOM
   1 C1            -0.0168     1.3909     0.0097 C.ar    
   2 C2             0.0021    -0.0041     0.0020 C.ar    
   3 C3            -1.1845    -0.7121     0.0095 C.ar    
   4 C4            -2.3952    -0.0265     0.0248 C.ar    
   5 C5            -2.4171     1.3754     0.0325 C.ar    
   6 C6            -1.2170     2.0760     0.0306 C.ar    
   7 C7            -3.8128    -0.4423     0.0361 C.2     
   8 C8            -4.5353     0.7114     0.0492 C.2     
   9 O9            -3.7097     1.7643     0.0470 O.3     
  10 C10           -6.0402     0.7908     0.0632 C.3     
  11 C11           -4.3345    -1.8156     0.0333 C.2     
  12 O12           -4.5402    -2.3899     1.0849 O.2     
  13 O13           -4.5851    -2.4391    -1.1355 O.3     
  14 C14           -5.3206    -4.3336    -2.4772 C.3     
  15 C15           -5.0993    -3.7950    -1.0623 C.3     
  16 O16            1.1896    -0.6677    -0.0133 O.3     
  17 S17            1.7437    -0.9771     1.3700 S.o2    
  18 O18            3.1397    -1.3444     1.1901 O.co2   
  19 O19            1.5955     0.2341     2.1618 O.co2   
  20 O20            0.9541    -2.0770     1.9018 O.co2   
  21 O21            1.1546     2.0818     0.0022 O.3     
  22 C22            1.0667     3.5081     0.0107 C.3     
  23 H23           -1.1722    -1.7920     0.0033 H       
  24 H24           -1.2222     3.1560     0.0368 H       
  25 H25           -6.3937     0.8041     1.0942 H       
  26 H26           -6.3606     1.7016    -0.4426 H       
  27 H27           -6.4546    -0.0758    -0.4519 H       
  28 H28           -4.3745    -4.3325    -3.0185 H       
  29 H29           -5.7065    -5.3515    -2.4222 H       
  30 H30           -6.0383    -3.7006    -2.9988 H       
  31 H31           -4.3815    -4.4281    -0.5407 H       
  32 H32           -6.0453    -3.7962    -0.5210 H       
  33 H33            0.5230     3.8439    -0.8723 H       
  34 H34            0.5400     3.8343     0.9075 H       
  35 H35            2.0700     3.9340     0.0034 H       
@<TRIPOS>BOND
   1    1    2 ar
   2    1   21 1
   3    1    6 ar
   4    2    3 ar
   5    2   16 1
   6    3    4 ar
   7    3   23 1
   8    4    5 ar
   9    4    7 1
  10    5    6 ar
  11    5    9 1
  12    6   24 1
  13    7    8 2
  14    7   11 1
  15    8    9 1
  16    8   10 1
  17   10   25 1
  18   10   26 1
  19   10   27 1
  20   11   12 2
  21   11   13 1
  22   13   15 1
  23   14   15 1
  24   14   28 1
  25   14   29 1
  26   14   30 1
  27   15   31 1
  28   15   32 1
  29   16   17 1
  30   17   18 ar
  31   17   19 ar
  32   17   20 ar
  33   21   22 1
  34   22   33 1
  35   22   34 1
  36   22   35 1

#	End of record

