#	Name: ASD04530018
#	Creating user name:	WinNT
#	Creation time:	15. 06. 2019 20:49

#	Modifying user name:	WinNT
#	Modification time:	15. 06. 2019 20:49

#	Program:	/corina/corina34_cracker 3.40 0067  02.08.2006

@<TRIPOS>MOLECULE
ASD04530018
  30   31    0    0    0
SMALL
NO_CHARGES


@<TRIPOS>ATOM
   1 C1             0.9780     0.3504     1.5175 C.ar    
   2 C2             0.2702    -0.0102     0.3792 C.ar    
   3 C3             0.7189     0.3826    -0.8742 C.ar    
   4 C4             1.8703     1.1329    -0.9923 C.ar    
   5 C5             2.5831     1.4970     0.1489 C.ar    
   6 C6             2.1298     1.1010     1.4062 C.ar    
   7 C7             3.8220     2.3034     0.0256 C.2     
   8 C8             3.9010     3.3827    -0.7710 C.2     
   9 S9             5.5247     4.0532    -0.6352 S.3     
  10 C10            5.9554     2.7863     0.5094 C.2     
  11 N11            4.9326     2.0118     0.7011 N.2     
  12 N12            7.1930     2.6421     1.1152 N.pl3   
  13 O13           -0.8645    -0.7498     0.4921 O.3     
  14 C14           -1.5433    -1.0857    -0.7197 C.3     
  15 C15            1.8953     4.8408    -0.7951 C.3     
  16 C16            2.7910     3.9263    -1.6333 C.3     
  17 H17            0.6240     0.0467     2.4916 H       
  18 H18            0.1661     0.1001    -1.7580 H       
  19 H19            2.2193     1.4376    -1.9679 H       
  20 H20            2.6797     1.3819     2.2923 H       
  21 H21            7.9055     3.2702     0.9182 H       
  22 H22            7.3470     1.9132     1.7363 H       
  23 H23           -1.8393    -0.1722    -1.2354 H       
  24 H24           -0.8784    -1.6653    -1.3600 H       
  25 H25           -2.4300    -1.6757    -0.4879 H       
  26 H26            1.3992     4.2541    -0.0220 H       
  27 H27            2.5029     5.6164    -0.3289 H       
  28 H28            1.1459     5.3032    -1.4374 H       
  29 H29            3.2180     4.4942    -2.4599 H       
  30 H30            2.1993     3.1001    -2.0274 H       
@<TRIPOS>BOND
   1    1    2 ar
   2    1    6 ar
   3    1   17 1
   4    2    3 ar
   5    2   13 1
   6    3    4 ar
   7    3   18 1
   8    4    5 ar
   9    4   19 1
  10    5    6 ar
  11    5    7 1
  12    6   20 1
  13    7    8 2
  14    7   11 1
  15    8    9 1
  16    8   16 1
  17    9   10 1
  18   10   11 2
  19   10   12 1
  20   12   21 1
  21   12   22 1
  22   13   14 1
  23   14   23 1
  24   14   24 1
  25   14   25 1
  26   15   16 1
  27   15   26 1
  28   15   27 1
  29   15   28 1
  30   16   29 1
  31   16   30 1

#	End of record

