#	Name: ASD00310085
#	Creating user name:	WinNT
#	Creation time:	15. 06. 2019 18:33

#	Modifying user name:	WinNT
#	Modification time:	15. 06. 2019 18:33

#	Program:	/corina/corina34_cracker 3.40 0067  02.08.2006

@<TRIPOS>MOLECULE
ASD00310085
  43   46    0    0    0
SMALL
NO_CHARGES


@<TRIPOS>ATOM
   1 N1            -0.0163     1.3498     0.0095 N.pl3   
   2 C2             0.0021    -0.0041     0.0020 C.2     
   3 C3             1.2923    -0.4484    -0.0127 C.2     
   4 C4             2.1473     0.7536    -0.0144 C.ar    
   5 C5             3.5226     0.9605    -0.0268 C.ar    
   6 C6             4.0177     2.2585    -0.0250 C.ar    
   7 C7             3.1363     3.3435    -0.0103 C.ar    
   8 C8             1.7859     3.1431     0.0024 C.ar    
   9 C9             1.2693     1.8501    -0.0001 C.ar    
  10 C10            1.7405    -1.8455    -0.0245 C.2     
  11 O11            2.9289    -2.1027    -0.0367 O.2     
  12 O12            0.8345    -2.8442    -0.0217 O.3     
  13 C13            3.6821     4.7482    -0.0079 C.3     
  14 C14            5.4828     2.4934    -0.0381 C.ar    
  15 C15            6.3049     1.8344     0.8738 C.ar    
  16 C16            7.6669     2.0567     0.8571 C.ar    
  17 C17            8.2162     2.9317    -0.0626 C.ar    
  18 C18            7.4049     3.5886    -0.9701 C.ar    
  19 C19            6.0422     3.3695    -0.9661 C.ar    
  20 C20            9.7041     3.1707    -0.0756 C.3     
  21 C21           10.2603     3.5169    -1.4669 C.3     
  22 C22           11.1608     4.5465    -0.7641 C.3     
  23 C23           10.1033     4.5931     0.3514 C.3     
  24 O24           10.4370     2.1431     0.5944 O.3     
  25 H25           -0.8206     1.8919     0.0164 H       
  26 H26           -0.8729    -0.6372     0.0073 H       
  27 H27            4.1998     0.1192    -0.0374 H       
  28 H28            1.1161     3.9902     0.0141 H       
  29 H29            1.1776    -3.7483    -0.0298 H       
  30 H30            3.8035     5.0925    -1.0349 H       
  31 H31            2.9892     5.4063     0.5165 H       
  32 H32            4.6483     4.7617     0.4965 H       
  33 H33            5.8770     1.1512     1.5925 H       
  34 H34            8.3050     1.5467     1.5636 H       
  35 H35            7.8390     4.2711    -1.6858 H       
  36 H36            5.4102     3.8792    -1.6783 H       
  37 H37           10.8118     2.7001    -1.9323 H       
  38 H38            9.5227     3.9646    -2.1330 H       
  39 H39           12.1190     4.1398    -0.4407 H       
  40 H40           11.2607     5.4843    -1.3106 H       
  41 H41            9.3228     5.3349     0.1824 H       
  42 H42           10.5281     4.6450     1.3539 H       
  43 H43           10.1062     1.9372     1.4794 H       
@<TRIPOS>BOND
   1    1    2 1
   2    1    9 1
   3    1   25 1
   4    2    3 2
   5    2   26 1
   6    3    4 1
   7    3   10 1
   8    4    5 ar
   9    4    9 ar
  10    5    6 ar
  11    5   27 1
  12    6    7 ar
  13    6   14 1
  14    7    8 ar
  15    7   13 1
  16    8    9 ar
  17    8   28 1
  18   10   11 2
  19   10   12 1
  20   12   29 1
  21   13   30 1
  22   13   31 1
  23   13   32 1
  24   14   15 ar
  25   14   19 ar
  26   15   16 ar
  27   15   33 1
  28   16   17 ar
  29   16   34 1
  30   17   18 ar
  31   17   20 1
  32   18   19 ar
  33   18   35 1
  34   19   36 1
  35   20   21 1
  36   20   23 1
  37   20   24 1
  38   21   22 1
  39   21   37 1
  40   21   38 1
  41   22   23 1
  42   22   39 1
  43   22   40 1
  44   23   41 1
  45   23   42 1
  46   24   43 1

#	End of record

