#	Name: ASD01948173
#	Creating user name:	WinNT
#	Creation time:	15. 06. 2019 20:13

#	Modifying user name:	WinNT
#	Modification time:	15. 06. 2019 20:13

#	Program:	/corina/corina34_cracker 3.40 0067  02.08.2006

@<TRIPOS>MOLECULE
ASD01948173
  39   42    0    0    0
SMALL
NO_CHARGES


@<TRIPOS>ATOM
   1 C1             1.8319     1.3945     1.0503 C.ar    
   2 C2             1.8200     0.0033     1.0448 C.ar    
   3 C3             2.4021    -0.6967     2.0926 C.ar    
   4 C4             2.9914    -0.0108     3.1374 C.ar    
   5 C5             3.0017     1.3721     3.1413 C.ar    
   6 C6             2.4278     2.0743     2.0962 C.ar    
   7 N7             1.2223    -0.6887    -0.0143 N.pl3   
   8 C8             3.8113    -1.9713    -0.4387 C.2     
   9 C9             2.6135    -2.7151    -0.2965 C.2     
  10 C10            1.3225    -2.0636    -0.0843 C.2     
  11 N11            4.9616    -2.6550    -0.6367 N.am    
  12 F12            1.2669     2.0799     0.0323 F       
  13 C13            2.6728    -4.1145    -0.3612 C.2     
  14 N14            1.5273    -4.8474    -0.2255 N.am    
  15 C15            0.3357    -4.2583    -0.0311 C.2     
  16 C16            0.2020    -2.8692     0.0448 C.2     
  17 C17            4.9514    -4.0073    -0.6946 C.2     
  18 N18            3.8587    -4.7075    -0.5554 N.2     
  19 O19            3.8046    -0.7540    -0.3893 O.2     
  20 C20            1.6004    -6.3090    -0.2947 C.3     
  21 O21           -0.6587    -4.9564     0.0838 O.2     
  22 I22            3.8961     2.4061     4.7287 I       
  23 C23            6.2244    -1.9283    -0.7897 C.3     
  24 C24            7.3329    -2.2171     0.2245 C.3     
  25 C25            7.4558    -2.7328    -1.2107 C.3     
  26 H26            2.3942    -1.7766     2.0913 H       
  27 H27            3.4443    -0.5556     3.9526 H       
  28 H28            2.4374     3.1542     2.1020 H       
  29 H29            0.7374    -0.2022    -0.6992 H       
  30 H30           -0.7700    -2.4256     0.2025 H       
  31 H31            5.8845    -4.5273    -0.8538 H       
  32 H32            1.7650    -6.7122     0.7045 H       
  33 H33            0.6655    -6.7010    -0.6953 H       
  34 H34            2.4251    -6.6012    -0.9448 H       
  35 H35            6.1374    -0.9081    -1.1635 H       
  36 H36            7.9755    -1.3869     0.5177 H       
  37 H37            7.1227    -2.9477     1.0056 H       
  38 H38            7.3264    -3.8028    -1.3738 H       
  39 H39            8.1793    -2.2420    -1.8617 H       
@<TRIPOS>BOND
   1    1    2 ar
   2    1   12 1
   3    1    6 ar
   4    2    3 ar
   5    2    7 1
   6    3    4 ar
   7    3   26 1
   8    4    5 ar
   9    4   27 1
  10    5    6 ar
  11    5   22 1
  12    6   28 1
  13    7   10 1
  14    7   29 1
  15    8    9 1
  16    8   19 2
  17    8   11 am
  18    9   10 1
  19    9   13 2
  20   10   16 2
  21   11   17 1
  22   11   23 1
  23   13   14 1
  24   13   18 1
  25   14   15 am
  26   14   20 1
  27   15   16 1
  28   15   21 2
  29   16   30 1
  30   17   18 2
  31   17   31 1
  32   20   32 1
  33   20   33 1
  34   20   34 1
  35   23   24 1
  36   23   25 1
  37   23   35 1
  38   24   25 1
  39   24   36 1
  40   24   37 1
  41   25   38 1
  42   25   39 1

#	End of record

