#	Name: ASD06170164
#	Creating user name:	WinNT
#	Creation time:	15. 06. 2019 21:05

#	Modifying user name:	WinNT
#	Modification time:	15. 06. 2019 21:05

#	Program:	/corina/corina34_cracker 3.40 0067  02.08.2006

@<TRIPOS>MOLECULE
ASD06170164
  72   76    0    0    0
SMALL
NO_CHARGES


@<TRIPOS>ATOM
   1 N1            -0.4876    -3.0702     0.0491 N.pl3   
   2 N2            -0.9218    -2.1032    -0.8624 N.am    
   3 C3             0.1318    -1.3343    -1.2075 C.2     
   4 C4             1.2906    -1.8555    -0.4652 C.2     
   5 C5             0.8299    -2.9205     0.2839 C.2     
   6 C6             2.6658    -1.3445    -0.5123 C.2     
   7 O7             3.5345    -1.8727     0.1565 O.2     
   8 N8             2.9666    -0.2903    -1.2964 N.am    
   9 C9            -1.3408    -4.0909     0.6628 C.3     
  10 C10           -1.3349    -5.3502    -0.2062 C.3     
  11 C11           -2.2259    -6.4162     0.4347 C.3     
  12 C12           -2.2293    -1.9575    -1.3374 C.ar    
  13 C13           -3.2875    -1.8583    -0.4434 C.ar    
  14 C14           -4.5773    -1.7141    -0.9157 C.ar    
  15 C15           -4.8157    -1.6688    -2.2771 C.ar    
  16 C16           -3.7643    -1.7678    -3.1699 C.ar    
  17 C17           -2.4715    -1.9060    -2.7040 C.ar    
  18 O18            0.1253    -0.3950    -1.9811 O.2     
  19 C19            1.6616    -3.7715     1.2087 C.3     
  20 C20            4.2598     0.2467    -1.2819 C.ar    
  21 C21            5.3573    -0.5892    -1.1213 C.ar    
  22 C22            6.6333    -0.0582    -1.1071 C.ar    
  23 C23            6.8170     1.3116    -1.2535 C.ar    
  24 C24            5.7208     2.1451    -1.4133 C.ar    
  25 C25            4.4455     1.6141    -1.4338 C.ar    
  26 O26            8.0724     1.8345    -1.2396 O.3     
  27 C27            8.8575     5.2168    -2.3423 C.ar    
  28 C28            8.7451     3.8334    -2.3615 C.ar    
  29 C29            8.2002     3.1856    -1.2591 C.ar    
  30 C30            7.7874     3.9580    -0.1734 C.ar    
  31 C31            7.9318     5.3276    -0.2280 C.ar    
  32 N32            8.4531     5.9129    -1.2906 N.ar    
  33 C33            9.6203     7.2095    -3.3846 C.2     
  34 O34            9.4264     7.8146    -2.3481 O.2     
  35 N35            9.4074     5.8797    -3.4385 N.am    
  36 N36           10.0480     7.8684    -4.4797 N.am    
  37 C37           10.3189     9.3112    -4.5603 C.3     
  38 C38           10.7591     9.6146    -6.0080 C.3     
  39 C39           10.1680     8.4236    -6.8078 C.3     
  40 C40           10.3278     7.2608    -5.7935 C.3     
  41 F41            7.7015    -0.8703    -0.9505 F       
  42 H42            2.2872     0.0964    -1.8707 H       
  43 H43           -0.9613    -4.3327     1.6556 H       
  44 H44           -2.3592    -3.7113     0.7456 H       
  45 H45           -1.7144    -5.1083    -1.1989 H       
  46 H46           -0.3165    -5.7297    -0.2890 H       
  47 H47           -3.2443    -6.0366     0.5175 H       
  48 H48           -2.2217    -7.3133    -0.1843 H       
  49 H49           -1.8464    -6.6580     1.4275 H       
  50 H50           -3.1020    -1.8943     0.6199 H       
  51 H51           -5.4006    -1.6368    -0.2210 H       
  52 H52           -5.8253    -1.5563    -2.6439 H       
  53 H53           -3.9539    -1.7328    -4.2325 H       
  54 H54           -1.6503    -1.9783    -3.4017 H       
  55 H55            2.0731    -4.6150     0.6545 H       
  56 H56            2.4760    -3.1738     1.6183 H       
  57 H57            1.0373    -4.1410     2.0222 H       
  58 H58            5.2137    -1.6535    -1.0072 H       
  59 H59            5.8641     3.2095    -1.5268 H       
  60 H60            3.5924     2.2636    -1.5635 H       
  61 H61            9.0755     3.2688    -3.2208 H       
  62 H62            7.3592     3.4882     0.6997 H       
  63 H63            7.6138     5.9304     0.6098 H       
  64 H64            9.6368     5.3839    -4.2401 H       
  65 H65            9.4150     9.8720    -4.3225 H       
  66 H66           11.1164     9.5779    -3.8668 H       
  67 H67           10.3341    10.5580    -6.3506 H       
  68 H68           11.8463     9.6294    -6.0854 H       
  69 H69            9.1188     8.5962    -7.0473 H       
  70 H70           10.7473     8.2339    -7.7114 H       
  71 H71           11.3440     6.8674    -5.8208 H       
  72 H72            9.6083     6.4703    -6.0068 H       
@<TRIPOS>BOND
   1    1    2 1
   2    1    5 1
   3    1    9 1
   4    2    3 am
   5    2   12 1
   6    3    4 1
   7    3   18 2
   8    4    5 2
   9    4    6 1
  10    5   19 1
  11    6    7 2
  12    6    8 am
  13    8   20 1
  14    8   42 1
  15    9   10 1
  16    9   43 1
  17    9   44 1
  18   10   11 1
  19   10   45 1
  20   10   46 1
  21   11   47 1
  22   11   48 1
  23   11   49 1
  24   12   13 ar
  25   12   17 ar
  26   13   14 ar
  27   13   50 1
  28   14   15 ar
  29   14   51 1
  30   15   16 ar
  31   15   52 1
  32   16   17 ar
  33   16   53 1
  34   17   54 1
  35   19   55 1
  36   19   56 1
  37   19   57 1
  38   20   21 ar
  39   20   25 ar
  40   21   22 ar
  41   21   58 1
  42   22   23 ar
  43   22   41 1
  44   23   24 ar
  45   23   26 1
  46   24   25 ar
  47   24   59 1
  48   25   60 1
  49   26   29 1
  50   27   28 ar
  51   27   32 ar
  52   27   35 1
  53   28   29 ar
  54   28   61 1
  55   29   30 ar
  56   30   31 ar
  57   30   62 1
  58   31   32 ar
  59   31   63 1
  60   33   34 2
  61   33   35 am
  62   33   36 am
  63   35   64 1
  64   36   37 1
  65   36   40 1
  66   37   38 1
  67   37   65 1
  68   37   66 1
  69   38   39 1
  70   38   67 1
  71   38   68 1
  72   39   40 1
  73   39   69 1
  74   39   70 1
  75   40   71 1
  76   40   72 1

#	End of record

