#	Name: ASD06390034
#	Creating user name:	WinNT
#	Creation time:	15. 06. 2019 21:06

#	Modifying user name:	WinNT
#	Modification time:	15. 06. 2019 21:06

#	Program:	/corina/corina34_cracker 3.40 0067  02.08.2006

@<TRIPOS>MOLECULE
ASD06390034
  71   75    0    0    0
SMALL
NO_CHARGES


@<TRIPOS>ATOM
   1 C1            -0.0257     1.3957    -0.0597 C.ar    
   2 C2            -0.0050     0.0193    -0.0687 C.ar    
   3 C3            -1.2119    -0.7000    -0.0535 C.ar    
   4 C4            -2.4427    -0.0000    -0.0289 C.ar    
   5 C5            -2.4386     1.4159    -0.0202 C.ar    
   6 C6            -1.2338     2.0935    -0.0298 C.ar    
   7 C7            -3.7156     2.1652     0.0054 C.ar    
   8 C8            -4.5561     2.0708     1.1263 C.ar    
   9 C9            -4.0689     2.9587    -1.0751 C.ar    
  10 C10           -5.2765     3.6640    -1.0437 C.ar    
  11 C11           -6.1178     3.5556     0.0913 C.ar    
  12 C12           -5.7351     2.7516     1.1716 C.ar    
  13 Cl13          -4.0877     1.0749     2.4689 Cl      
  14 N14           -5.6643     4.4462    -2.0637 N.ar    
  15 C15           -6.8084     5.1001    -2.0063 C.ar    
  16 N16           -7.6271     5.0266    -0.9604 N.ar    
  17 C17           -7.3348     4.2818     0.0955 C.ar    
  18 N18           -8.1934     4.2150     1.1723 N.3     
  19 C19           -9.5740     4.5065     0.7637 C.3     
  20 C20          -10.5179     4.2461     1.9425 C.3     
  21 N21          -10.0381     5.0117     3.1030 N.am    
  22 C22           -8.6256     4.8763     3.4903 C.3     
  23 C23           -7.7563     5.1118     2.2505 C.3     
  24 C24          -10.8707     5.8156     3.7937 C.2     
  25 O25          -12.0085     5.9927     3.4024 O.2     
  26 C26          -10.4033     6.4787     5.0207 C.2     
  27 C27          -11.1884     7.3520     5.6450 C.2     
  28 N28           -7.1718     5.8955    -3.0780 N.pl3   
  29 C29           -6.2924     5.9986    -4.2452 C.3     
  30 C30           -6.9238     6.9337    -5.2785 C.3     
  31 C31           -6.0191     7.0397    -6.4791 C.2     
  32 O32           -4.9725     6.4275    -6.5057 O.2     
  33 N33           -6.3732     7.8147    -7.5233 N.am    
  34 C34           -5.4938     7.9178    -8.6905 C.3     
  35 C35           -7.6375     8.5542    -7.4912 C.3     
  36 C36           -1.2194    -2.1060    -0.0627 C.ar    
  37 C37           -2.4056    -2.7735    -0.0479 C.ar    
  38 C38           -3.6156    -2.0833    -0.0237 C.ar    
  39 C39           -3.6451    -0.7215    -0.0142 C.ar    
  40 O40            1.1460     2.0840    -0.0745 O.3     
  41 H41            0.9379    -0.5071    -0.0877 H       
  42 H42           -1.2276     3.1735    -0.0228 H       
  43 H43           -3.4173     3.0320    -1.9333 H       
  44 H44           -6.3755     2.6677     2.0372 H       
  45 H45           -9.6507     5.5505     0.4599 H       
  46 H46           -9.8495     3.8630    -0.0719 H       
  47 H47          -11.5260     4.5687     1.6824 H       
  48 H48          -10.5209     3.1826     2.1812 H       
  49 H49           -8.3828     5.6155     4.2536 H       
  50 H50           -8.4467     3.8734     3.8778 H       
  51 H51           -6.7135     4.9074     2.4934 H       
  52 H52           -7.8583     6.1474     1.9261 H       
  53 H53           -9.4225     6.2564     5.4146 H       
  54 H54          -10.8452     7.8388     6.5459 H       
  55 H55          -12.1691     7.5743     5.2511 H       
  56 H56           -8.0089     6.3851    -3.0568 H       
  57 H57           -5.3255     6.3968    -3.9376 H       
  58 H58           -6.1551     5.0107    -4.6850 H       
  59 H59           -7.8906     6.5355    -5.5861 H       
  60 H60           -7.0610     7.9215    -4.8386 H       
  61 H61           -5.7547     7.1431    -9.4115 H       
  62 H62           -5.6147     8.8983    -9.1510 H       
  63 H63           -4.4578     7.7886    -8.3773 H       
  64 H64           -7.4721     9.5378    -7.0517 H       
  65 H65           -8.0171     8.6691    -8.5065 H       
  66 H66           -8.3640     8.0058    -6.8916 H       
  67 H67           -0.2888    -2.6537    -0.0818 H       
  68 H68           -2.4089    -3.8534    -0.0554 H       
  69 H69           -4.5434    -2.6359    -0.0123 H       
  70 H70           -4.5905    -0.1997     0.0053 H       
  71 H71            1.4707     2.2887    -0.9621 H       
@<TRIPOS>BOND
   1    1    2 ar
   2    1   40 1
   3    1    6 ar
   4    2    3 ar
   5    2   41 1
   6    3    4 ar
   7    3   36 ar
   8    4    5 ar
   9    4   39 ar
  10    5    6 ar
  11    5    7 1
  12    6   42 1
  13    7    9 ar
  14    7    8 ar
  15    8   13 1
  16    8   12 ar
  17    9   10 ar
  18    9   43 1
  19   10   11 ar
  20   10   14 ar
  21   11   12 ar
  22   11   17 ar
  23   12   44 1
  24   14   15 ar
  25   15   16 ar
  26   15   28 1
  27   16   17 ar
  28   17   18 1
  29   18   19 1
  30   18   23 1
  31   19   20 1
  32   19   45 1
  33   19   46 1
  34   20   21 1
  35   20   47 1
  36   20   48 1
  37   21   22 1
  38   21   24 am
  39   22   23 1
  40   22   49 1
  41   22   50 1
  42   23   51 1
  43   23   52 1
  44   24   25 2
  45   24   26 1
  46   26   27 2
  47   26   53 1
  48   27   54 1
  49   27   55 1
  50   28   29 1
  51   28   56 1
  52   29   30 1
  53   29   57 1
  54   29   58 1
  55   30   31 1
  56   30   59 1
  57   30   60 1
  58   31   32 2
  59   31   33 am
  60   33   34 1
  61   33   35 1
  62   34   61 1
  63   34   62 1
  64   34   63 1
  65   35   64 1
  66   35   65 1
  67   35   66 1
  68   36   37 ar
  69   36   67 1
  70   37   38 ar
  71   37   68 1
  72   38   39 ar
  73   38   69 1
  74   39   70 1
  75   40   71 1

#	End of record

