#	Name: ASD08150407
#	Creating user name:	WinNT
#	Creation time:	15. 06. 2019 21:16

#	Modifying user name:	WinNT
#	Modification time:	15. 06. 2019 21:16

#	Program:	/corina/corina34_cracker 3.40 0067  02.08.2006

@<TRIPOS>MOLECULE
ASD08150407
  43   47    0    0    0
SMALL
NO_CHARGES


@<TRIPOS>ATOM
   1 N1             1.0086     3.1199    -1.6837 N.am    
   2 C2             1.4489     2.5136    -2.8033 C.2     
   3 C3             2.6564     1.7860    -2.8051 C.2     
   4 C4             3.3955     1.6861    -1.6710 C.2     
   5 C5             2.9353     2.3226    -0.4912 C.ar    
   6 C6             3.6638     2.2505     0.7116 C.ar    
   7 N7             3.2372     2.8390     1.7983 N.ar    
   8 C8             2.0930     3.5391     1.8332 C.ar    
   9 C9             1.2956     3.6645     0.6691 C.ar    
  10 C10            1.7293     3.0394    -0.5233 C.ar    
  11 C11            0.1043     4.3956     0.7165 C.ar    
  12 C12           -0.2838     4.9907     1.9051 C.ar    
  13 C13            0.5101     4.8624     3.0528 C.ar    
  14 C14            1.6716     4.1552     3.0228 C.ar    
  15 O15            0.7942     2.5949    -3.8285 O.2     
  16 C16           -1.5466     5.7689     1.9637 C.2     
  17 C17           -0.1907     3.8413    -1.7091 C.ar    
  18 C18           -1.7590     6.9084     2.6838 C.2     
  19 C19           -0.1796     5.1998    -1.9975 C.ar    
  20 C20           -1.3646     5.9087    -2.0222 C.ar    
  21 C21           -2.5613     5.2673    -1.7598 C.ar    
  22 C22           -2.5758     3.9147    -1.4723 C.ar    
  23 C23           -1.3948     3.1990    -1.4516 C.ar    
  24 N24           -3.0313     7.2978     2.4651 N.pl3   
  25 N25           -3.6252     6.3809     1.5895 N.2     
  26 C26           -2.7418     5.4686     1.2815 C.2     
  27 C27           -3.6803     8.4766     3.0443 C.3     
  28 H28            2.9943     1.3063    -3.7118 H       
  29 H29            4.3208     1.1291    -1.6676 H       
  30 H30            4.5918     1.6986     0.7370 H       
  31 H31           -0.5082     4.4955    -0.1674 H       
  32 H32            0.1959     5.3319     3.9732 H       
  33 H33            2.2710     4.0663     3.9168 H       
  34 H34           -1.0387     7.4076     3.3150 H       
  35 H35            0.7548     5.7015    -2.2019 H       
  36 H36           -1.3566     6.9651    -2.2464 H       
  37 H37           -3.4865     5.8240    -1.7790 H       
  38 H38           -3.5120     3.4167    -1.2677 H       
  39 H39           -1.4068     2.1426    -1.2273 H       
  40 H40           -2.9023     4.6270     0.6240 H       
  41 H41           -3.5308     9.3333     2.3871 H       
  42 H42           -4.7476     8.2859     3.1555 H       
  43 H43           -3.2451     8.6878     4.0211 H       
@<TRIPOS>BOND
   1    1    2 am
   2    1   10 1
   3    1   17 1
   4    2    3 1
   5    2   15 2
   6    3    4 2
   7    3   28 1
   8    4    5 1
   9    4   29 1
  10    5    6 ar
  11    5   10 ar
  12    6    7 ar
  13    6   30 1
  14    7    8 ar
  15    8    9 ar
  16    8   14 ar
  17    9   10 ar
  18    9   11 ar
  19   11   12 ar
  20   11   31 1
  21   12   13 ar
  22   12   16 1
  23   13   14 ar
  24   13   32 1
  25   14   33 1
  26   16   18 2
  27   16   26 1
  28   17   19 ar
  29   17   23 ar
  30   18   24 1
  31   18   34 1
  32   19   20 ar
  33   19   35 1
  34   20   21 ar
  35   20   36 1
  36   21   22 ar
  37   21   37 1
  38   22   23 ar
  39   22   38 1
  40   23   39 1
  41   24   25 1
  42   24   27 1
  43   25   26 2
  44   26   40 1
  45   27   41 1
  46   27   42 1
  47   27   43 1

#	End of record

