#	Name: ASD06710064
#	Creating user name:	WinNT
#	Creation time:	15. 06. 2019 21:08

#	Modifying user name:	WinNT
#	Modification time:	15. 06. 2019 21:08

#	Program:	/corina/corina34_cracker 3.40 0067  02.08.2006

@<TRIPOS>MOLECULE
ASD06710064
  33   33    0    0    0
SMALL
NO_CHARGES


@<TRIPOS>ATOM
   1 C1             1.2266    -0.6151     0.5254 C.2     
   2 C2            -0.0655    -0.0460    -0.0013 C.3     
   3 C3            -0.0271     1.4806     0.0947 C.3     
   4 O4             2.1263    -0.8778    -0.2371 O.2     
   5 O5             1.3801    -0.8250     1.8423 O.3     
   6 C6            -0.2472    -0.4606    -1.4628 C.3     
   7 N7            -1.1845    -0.5573     0.7941 N.pl3   
   8 C8            -1.4186    -1.9323     0.8671 C.ar    
   9 C9            -2.5605    -2.4111     1.4962 C.ar    
  10 C10           -2.7893    -3.7733     1.5662 C.ar    
  11 C11           -1.8801    -4.6584     1.0098 C.ar    
  12 C12           -0.7431    -4.1829     0.3840 C.ar    
  13 C13           -0.5127    -2.8231     0.3057 C.ar    
  14 C14           -2.1311    -6.1423     1.0876 C.3     
  15 O15           -1.0609    -6.8405     0.4479 O.3     
  16 C16           -1.2019    -8.2625     0.4658 C.3     
  17 F17           -3.8994    -4.2411     2.1776 F       
  18 H18            0.8546     1.8552    -0.4251 H       
  19 H19           -0.9238     1.8962    -0.3649 H       
  20 H20            0.0152     1.7778     1.1425 H       
  21 H21            2.2265    -1.1916     2.1327 H       
  22 H22           -0.1752    -1.5452    -1.5444 H       
  23 H23           -1.2260    -0.1340    -1.8141 H       
  24 H24            0.5301     0.0019    -2.0710 H       
  25 H25           -1.7628     0.0591     1.2701 H       
  26 H26           -3.2686    -1.7209     1.9303 H       
  27 H27           -0.0361    -4.8753    -0.0485 H       
  28 H28            0.3738    -2.4529    -0.1878 H       
  29 H29           -2.1900    -6.4465     2.1327 H       
  30 H30           -3.0699    -6.3788     0.5869 H       
  31 H31           -1.2415    -8.6107     1.4979 H       
  32 H32           -2.1214    -8.5429    -0.0479 H       
  33 H33           -0.3502    -8.7184    -0.0391 H       
@<TRIPOS>BOND
   1    1    2 1
   2    1    4 2
   3    1    5 1
   4    2    3 1
   5    2    6 1
   6    2    7 1
   7    3   18 1
   8    3   19 1
   9    3   20 1
  10    5   21 1
  11    6   22 1
  12    6   23 1
  13    6   24 1
  14    7    8 1
  15    7   25 1
  16    8    9 ar
  17    8   13 ar
  18    9   10 ar
  19    9   26 1
  20   10   11 ar
  21   10   17 1
  22   11   12 ar
  23   11   14 1
  24   12   13 ar
  25   12   27 1
  26   13   28 1
  27   14   15 1
  28   14   29 1
  29   14   30 1
  30   15   16 1
  31   16   31 1
  32   16   32 1
  33   16   33 1

#	End of record

