#	Name: ASD04560172
#	Creating user name:	WinNT
#	Creation time:	15. 06. 2019 20:49

#	Modifying user name:	WinNT
#	Modification time:	15. 06. 2019 20:49

#	Program:	/corina/corina34_cracker 3.40 0067  02.08.2006

@<TRIPOS>MOLECULE
ASD04560172
  41   43    0    0    0
SMALL
NO_CHARGES


@<TRIPOS>ATOM
   1 C1            -0.0174     1.3753     0.0245 C.ar    
   2 C2             0.0009    -0.0041     0.0241 C.ar    
   3 C3             1.2065    -0.6830     0.0137 C.ar    
   4 C4             2.4008     0.0155     0.0036 C.ar    
   5 C5             2.3967     1.3950     0.0043 C.ar    
   6 C6             1.1839     2.0861     0.0143 C.ar    
   7 C7             1.1719     3.5642     0.0151 C.2     
   8 O8             2.2196     4.1806     0.0071 O.2     
   9 N9            -0.0008     4.2286     0.0248 N.am    
  10 C10           -0.0139     5.6234     0.1385 C.ar    
  11 C11           -0.9810     6.3662    -0.5259 C.ar    
  12 C12            0.9217     7.6428     1.0318 C.ar    
  13 C13            0.9368     6.2663     0.9205 C.ar    
  14 C14           -0.9924     7.7425    -0.4119 C.ar    
  15 C15           -0.0401     8.3819     0.3638 C.ar    
  16 F16           -0.0530     9.7284     0.4740 F       
  17 C17            1.2088    -2.8533    -1.7535 C.3     
  18 C18            1.2195    -4.3507    -1.9232 C.ar    
  19 C19            0.0274    -5.0472    -1.9905 C.ar    
  20 C20            0.0372    -6.4208    -2.1461 C.ar    
  21 C21            1.2392    -7.0977    -2.2348 C.ar    
  22 C22            2.4313    -6.4011    -2.1684 C.ar    
  23 C23            2.4214    -5.0271    -2.0171 C.ar    
  24 S24            1.2209    -2.4450     0.0139 S.o     
  25 O25            2.4946    -2.7542     0.5627 O.2     
  26 H26           -0.9591     1.9040     0.0281 H       
  27 H27           -0.9278    -0.5553     0.0323 H       
  28 H28            3.3384    -0.5205    -0.0045 H       
  29 H29            3.3296     1.9390    -0.0028 H       
  30 H30           -0.8356     3.7399    -0.0470 H       
  31 H31           -1.7235     5.8679    -1.1316 H       
  32 H32            1.6606     8.1431     1.6401 H       
  33 H33            1.6871     5.6902     1.4417 H       
  34 H34           -1.7444     8.3205    -0.9285 H       
  35 H35            2.0912    -2.4272    -2.2309 H       
  36 H36            0.3113    -2.4418    -2.2154 H       
  37 H37           -0.9117    -4.5184    -1.9213 H       
  38 H38           -0.8942    -6.9650    -2.1981 H       
  39 H39            1.2469    -8.1709    -2.3557 H       
  40 H40            3.3704    -6.9300    -2.2373 H       
  41 H41            3.3528    -4.4828    -1.9652 H       
@<TRIPOS>BOND
   1    1    2 ar
   2    1    6 ar
   3    1   26 1
   4    2    3 ar
   5    2   27 1
   6    3    4 ar
   7    3   24 1
   8    4    5 ar
   9    4   28 1
  10    5    6 ar
  11    5   29 1
  12    6    7 1
  13    7    8 2
  14    7    9 am
  15    9   10 1
  16    9   30 1
  17   10   11 ar
  18   10   13 ar
  19   11   14 ar
  20   11   31 1
  21   12   13 ar
  22   12   15 ar
  23   12   32 1
  24   13   33 1
  25   14   15 ar
  26   14   34 1
  27   15   16 1
  28   17   18 1
  29   17   24 1
  30   17   35 1
  31   17   36 1
  32   18   19 ar
  33   18   23 ar
  34   19   20 ar
  35   19   37 1
  36   20   21 ar
  37   20   38 1
  38   21   22 ar
  39   21   39 1
  40   22   23 ar
  41   22   40 1
  42   23   41 1
  43   24   25 2

#	End of record

