#	Name: ASD09740691
#	Creating user name:	WinNT
#	Creation time:	15. 06. 2019 21:23

#	Modifying user name:	WinNT
#	Modification time:	15. 06. 2019 21:23

#	Program:	/corina/corina34_cracker 3.40 0067  02.08.2006

@<TRIPOS>MOLECULE
ASD09740691
  53   56    0    0    0
SMALL
NO_CHARGES


@<TRIPOS>ATOM
   1 C1             2.5175     1.5782     1.2943 C.3     
   2 S2             2.0188    -0.0158     0.5866 S.o2    
   3 O3             2.8949    -1.0485     1.0170 O.2     
   4 O4             0.6085    -0.1741     0.6588 O.2     
   5 N5             2.3303     0.1354    -1.0328 N.am    
   6 C6             3.7092     0.2936    -1.5018 C.3     
   7 C7             4.1320    -0.9289    -2.3438 C.3     
   8 C8             3.7828    -0.4785    -3.7782 C.3     
   9 C9             3.8542     1.0329    -3.7467 C.ar    
  10 C10            3.9493     1.9577    -4.7910 C.ar    
  11 C11            4.0011     3.3224    -4.5090 C.ar    
  12 C12            3.9583     3.7533    -3.1990 C.ar    
  13 C13            3.8647     2.8352    -2.1701 C.ar    
  14 C14            3.8121     1.4764    -2.4412 C.ar    
  15 S15            4.1141     2.5112    -7.6260 S.3     
  16 C16            3.9953     1.4893    -6.1923 C.2     
  17 N17            3.9558     0.2459    -6.5889 N.2     
  18 N18            4.0062     0.0252    -7.8295 N.2     
  19 C19            4.0941     1.0571    -8.6256 C.2     
  20 C20            4.1648     1.0144   -10.1012 C.ar    
  21 C21            4.1392    -0.2099   -10.7644 C.ar    
  22 C22            4.2063    -0.2442   -12.1563 C.ar    
  23 C23            4.2991     0.9550   -12.8788 C.ar    
  24 C24            4.3238     2.1690   -12.2076 C.ar    
  25 C25            4.2517     2.2031   -10.8315 C.ar    
  26 O26            4.3650     0.9274   -14.2335 O.3     
  27 C27            4.3363     2.1857   -14.9102 C.3     
  28 C28            5.7521     2.7620   -14.9758 C.3     
  29 C29            3.7993     1.9894   -16.3294 C.3     
  30 C30            4.1810    -1.4988   -12.8463 C.1     
  31 N31            4.1610    -2.4940   -13.3937 N.1     
  32 H32            3.5590     1.7777     1.0423 H       
  33 H33            1.8874     2.3693     0.8878 H       
  34 H34            2.4057     1.5455     2.3781 H       
  35 H35            1.5999     0.1193    -1.6708 H       
  36 H36            4.3847     0.4223    -0.6561 H       
  37 H37            5.2014    -1.1159    -2.2458 H       
  38 H38            3.5560    -1.8107    -2.0633 H       
  39 H39            4.5087    -0.8769    -4.4871 H       
  40 H40            2.7767    -0.8042    -4.0426 H       
  41 H41            4.0749     4.0395    -5.3132 H       
  42 H42            3.9982     4.8095    -2.9772 H       
  43 H43            3.8323     3.1789    -1.1468 H       
  44 H44            4.0681    -1.1294   -10.2023 H       
  45 H45            4.3952     3.0909   -12.7656 H       
  46 H46            4.2669     3.1517   -10.3154 H       
  47 H47            3.6882     2.8747   -14.3686 H       
  48 H48            5.7301     3.7218   -15.4919 H       
  49 H49            6.1346     2.9018   -13.9647 H       
  50 H50            6.4001     2.0729   -15.5174 H       
  51 H51            2.7906     1.5788   -16.2827 H       
  52 H52            3.7773     2.9492   -16.8455 H       
  53 H53            4.4473     1.3003   -16.8710 H       
@<TRIPOS>BOND
   1    1    2 1
   2    1   32 1
   3    1   33 1
   4    1   34 1
   5    2    3 2
   6    2    4 2
   7    2    5 am
   8    5    6 1
   9    5   35 1
  10    6    7 1
  11    6   14 1
  12    6   36 1
  13    7    8 1
  14    7   37 1
  15    7   38 1
  16    8    9 1
  17    8   39 1
  18    8   40 1
  19    9   10 ar
  20    9   14 ar
  21   10   11 ar
  22   10   16 1
  23   11   12 ar
  24   11   41 1
  25   12   13 ar
  26   12   42 1
  27   13   14 ar
  28   13   43 1
  29   15   16 1
  30   15   19 1
  31   16   17 2
  32   17   18 1
  33   18   19 2
  34   19   20 1
  35   20   21 ar
  36   20   25 ar
  37   21   22 ar
  38   21   44 1
  39   22   23 ar
  40   22   30 1
  41   23   24 ar
  42   23   26 1
  43   24   25 ar
  44   24   45 1
  45   25   46 1
  46   26   27 1
  47   27   28 1
  48   27   29 1
  49   27   47 1
  50   28   48 1
  51   28   49 1
  52   28   50 1
  53   29   51 1
  54   29   52 1
  55   29   53 1
  56   30   31 3

#	End of record

