#	Name: ASD01028662
#	Creating user name:	WinNT
#	Creation time:	15. 06. 2019 18:57

#	Modifying user name:	WinNT
#	Modification time:	15. 06. 2019 18:57

#	Program:	/corina/corina34_cracker 3.40 0067  02.08.2006

@<TRIPOS>MOLECULE
ASD01028662
  35   36    0    0    0
SMALL
NO_CHARGES


@<TRIPOS>ATOM
   1 N1            -0.0169     1.3952     0.0097 N.pl3   
   2 N2             0.0021    -0.0041     0.0020 N.2     
   3 C3             1.2420    -0.4088    -0.0120 C.2     
   4 C4             2.0738     0.7314    -0.0138 C.2     
   5 C5             1.2501     1.8374    -0.0000 C.2     
   6 C6            -1.2171     2.2353     0.0202 C.3     
   7 C7            -2.1155     1.8559    -1.1587 C.3     
   8 F8            -2.4864     0.5115    -1.0486 F       
   9 F9            -3.2616     2.6582    -1.1486 F       
  10 F10           -1.4200     2.0513    -2.3568 F       
  11 O11            4.5237    -0.3938    -0.0428 O.3     
  12 B12            3.6437     0.7392    -0.0283 Du      
  13 O13            4.5125     1.8809    -0.0305 O.3     
  14 C14            5.5814     1.5248    -0.9324 C.3     
  15 C15            5.5890    -0.0174    -0.9407 C.3     
  16 C16            6.9300    -0.5467    -0.4284 C.3     
  17 C17            5.3097    -0.5443    -2.3497 C.3     
  18 C18            5.2968     2.0641    -2.3356 C.3     
  19 C19            6.9172     2.0617    -0.4143 C.3     
  20 H20            1.5741    -1.4365    -0.0201 H       
  21 H21            1.5666     2.8700     0.0022 H       
  22 H22           -1.7589     2.0831     0.9537 H       
  23 H23           -0.9281     3.2828    -0.0655 H       
  24 H24            6.8986    -1.6354    -0.3857 H       
  25 H25            7.7263    -0.2324    -1.1031 H       
  26 H26            7.1205    -0.1493     0.5685 H       
  27 H27            4.3597    -0.1452    -2.7051 H       
  28 H28            6.1095    -0.2300    -3.0203 H       
  29 H29            5.2610    -1.6330    -2.3275 H       
  30 H30            5.2374     3.1520    -2.3016 H       
  31 H31            6.0996     1.7650    -3.0095 H       
  32 H32            4.3508     1.6596    -2.6954 H       
  33 H33            7.1116     1.6555     0.5783 H       
  34 H34            7.7165     1.7626    -1.0923 H       
  35 H35            6.8750     3.1496    -0.3598 H       
@<TRIPOS>BOND
   1    1    2 1
   2    1    5 1
   3    1    6 1
   4    2    3 2
   5    3    4 1
   6    3   20 1
   7    4    5 2
   8    4   12 1
   9    5   21 1
  10    6    7 1
  11    6   22 1
  12    6   23 1
  13    7    8 1
  14    7    9 1
  15    7   10 1
  16   11   12 1
  17   11   15 1
  18   12   13 1
  19   13   14 1
  20   14   15 1
  21   14   18 1
  22   14   19 1
  23   15   16 1
  24   15   17 1
  25   16   24 1
  26   16   25 1
  27   16   26 1
  28   17   27 1
  29   17   28 1
  30   17   29 1
  31   18   30 1
  32   18   31 1
  33   18   32 1
  34   19   33 1
  35   19   34 1
  36   19   35 1

#	End of record

