#	Name: ASD06020128
#	Creating user name:	WinNT
#	Creation time:	15. 06. 2019 21:04

#	Modifying user name:	WinNT
#	Modification time:	15. 06. 2019 21:04

#	Program:	/corina/corina34_cracker 3.40 0067  02.08.2006

@<TRIPOS>MOLECULE
ASD06020128
  36   39    0    0    0
SMALL
NO_CHARGES


@<TRIPOS>ATOM
   1 C1            -0.0167     1.3957     0.0027 C.ar    
   2 C2             0.0030    -0.0035     0.0026 C.ar    
   3 C3             1.2264    -0.6795    -0.0197 C.ar    
   4 C4             2.4121     0.1237    -0.0420 C.ar    
   5 C5             2.2911     1.5061    -0.0404 C.ar    
   6 N6             1.1094     2.0913    -0.0181 N.ar    
   7 S7            -1.2893    -1.1990     0.0261 S.3     
   8 C8            -0.1012    -2.4960     0.0043 C.2     
   9 N9             1.0962    -2.0026    -0.0175 N.2     
  10 C10            3.7050    -0.4915    -0.0652 C.1     
  11 N11            4.7307    -0.9795    -0.0836 N.1     
  12 C12           -0.4223    -3.9381     0.0108 C.ar    
  13 C13            0.6039    -4.8860    -0.0081 C.ar    
  14 C14            0.2963    -6.2319    -0.0020 C.ar    
  15 C15           -1.0245    -6.6437     0.0224 C.ar    
  16 C16           -2.0463    -5.7124     0.0407 C.ar    
  17 C17           -1.7542    -4.3610     0.0416 C.ar    
  18 F18           -2.7533    -3.4519     0.0657 F       
  19 Cl19           2.2620    -4.3726    -0.0398 Cl      
  20 N20           -1.2334     2.0632     0.0191 N.pl3   
  21 C21           -0.1623     5.4466     0.4374 C.ar    
  22 N22           -0.1417     4.1337     0.3300 N.ar    
  23 C23           -1.2648     3.4464     0.1315 C.ar    
  24 C24           -2.4703     4.1350     0.0381 C.ar    
  25 C25           -2.4483     5.5214     0.1570 C.ar    
  26 N26           -1.2827     6.1346     0.3546 N.ar    
  27 N27           -3.6223     6.2534     0.0707 N.pl3   
  28 H28            3.1829     2.1151    -0.0568 H       
  29 H29            1.0889    -6.9654    -0.0165 H       
  30 H30           -1.2584    -7.6981     0.0267 H       
  31 H31           -3.0748    -6.0413     0.0589 H       
  32 H32           -2.0619     1.5631    -0.0480 H       
  33 H33            0.7657     5.9738     0.6026 H       
  34 H34           -3.3988     3.6074    -0.1229 H       
  35 H35           -4.4674     5.7995    -0.0736 H       
  36 H36           -3.5988     7.2195     0.1546 H       
@<TRIPOS>BOND
   1    1    2 ar
   2    1    6 ar
   3    1   20 1
   4    2    3 ar
   5    2    7 1
   6    3    4 ar
   7    3    9 1
   8    4    5 ar
   9    4   10 1
  10    5    6 ar
  11    5   28 1
  12    7    8 1
  13    8    9 2
  14    8   12 1
  15   10   11 3
  16   12   13 ar
  17   12   17 ar
  18   13   14 ar
  19   13   19 1
  20   14   15 ar
  21   14   29 1
  22   15   16 ar
  23   15   30 1
  24   16   17 ar
  25   16   31 1
  26   17   18 1
  27   20   23 1
  28   20   32 1
  29   21   22 ar
  30   21   26 ar
  31   21   33 1
  32   22   23 ar
  33   23   24 ar
  34   24   25 ar
  35   24   34 1
  36   25   26 ar
  37   25   27 1
  38   27   35 1
  39   27   36 1

#	End of record

