#	Name: ASD02030109
#	Creating user name:	WinNT
#	Creation time:	15. 06. 2019 20:14

#	Modifying user name:	WinNT
#	Modification time:	15. 06. 2019 20:14

#	Program:	/corina/corina34_cracker 3.40 0067  02.08.2006

@<TRIPOS>MOLECULE
ASD02030109
  52   55    0    0    0
SMALL
NO_CHARGES


@<TRIPOS>ATOM
   1 N1            -0.2119     1.4223    -0.1393 N.am    
   2 C2            -0.0216    -0.0112     0.1224 C.3     
   3 C3            -0.9186    -0.4181     1.2980 C.3     
   4 N4            -2.2776     0.0818     1.0467 N.am    
   5 C5            -2.4679     1.5153     0.7849 C.3     
   6 C6            -1.5716     1.9231    -0.3851 C.3     
   7 C7             0.8410     2.2637    -0.1483 C.2     
   8 C8             2.1834     1.7718     0.2279 C.2     
   9 N9             3.2620     2.5089     0.3832 N.2     
  10 N10            2.5161     0.4920     0.4775 N.2     
  11 C11            3.7904     0.4723     0.7747 C.2     
  12 N12            4.2434     1.7413     0.7117 N.pl3   
  13 O13            0.6868     3.4269    -0.4657 O.2     
  14 C14           -3.3305    -0.7596     1.0557 C.2     
  15 C15           -4.7026    -0.2282     0.9116 C.ar    
  16 O16           -3.1520    -1.9552     1.1822 O.2     
  17 C17           -1.5450     3.4482    -0.5044 C.3     
  18 C18           -2.1092     1.3125    -1.6809 C.3     
  19 C19            5.5591     2.1548     0.9609 C.ar    
  20 C20            5.8968     3.4979     0.8614 C.ar    
  21 C21            7.1942     3.9024     1.1075 C.ar    
  22 C22            8.1566     2.9711     1.4522 C.ar    
  23 C23            7.8234     1.6328     1.5521 C.ar    
  24 C24            6.5263     1.2229     1.3132 C.ar    
  25 C25           -5.6740    -0.9694     0.2369 C.ar    
  26 C26           -6.9525    -0.4677     0.1060 C.ar    
  27 C27           -7.2726     0.7672     0.6416 C.ar    
  28 C28           -6.3142     1.5072     1.3111 C.ar    
  29 C29           -5.0337     1.0143     1.4545 C.ar    
  30 H30           -0.2966    -0.5844    -0.7630 H       
  31 H31            1.0215    -0.2017     0.3751 H       
  32 H32           -0.9385    -1.5045     1.3842 H       
  33 H33           -0.5333     0.0175     2.2200 H       
  34 H34           -3.5110     1.7058     0.5322 H       
  35 H35           -2.1929     2.0885     1.6704 H       
  36 H36            4.3730    -0.4012     1.0278 H       
  37 H37           -1.0490     3.8723     0.3686 H       
  38 H38           -1.0011     3.7327    -1.4052 H       
  39 H39           -2.5658     3.8260    -0.5618 H       
  40 H40           -3.1227     1.6720    -1.8588 H       
  41 H41           -1.4688     1.6044    -2.5132 H       
  42 H42           -2.1191     0.2260    -1.5938 H       
  43 H43            5.1457     4.2256     0.5916 H       
  44 H44            7.4575     4.9469     1.0304 H       
  45 H45            9.1707     3.2897     1.6435 H       
  46 H46            8.5772     0.9078     1.8215 H       
  47 H47            6.2665     0.1776     1.3916 H       
  48 H48           -5.4253    -1.9333    -0.1819 H       
  49 H49           -7.7050    -1.0401    -0.4161 H       
  50 H50           -8.2749     1.1554     0.5363 H       
  51 H51           -6.5704     2.4706     1.7265 H       
  52 H52           -4.2866     1.5927     1.9776 H       
@<TRIPOS>BOND
   1    1    2 1
   2    1    7 am
   3    1    6 1
   4    2    3 1
   5    2   30 1
   6    2   31 1
   7    3    4 1
   8    3   32 1
   9    3   33 1
  10    4    5 1
  11    4   14 am
  12    5    6 1
  13    5   34 1
  14    5   35 1
  15    6   17 1
  16    6   18 1
  17    7    8 1
  18    7   13 2
  19    8    9 2
  20    8   10 1
  21    9   12 1
  22   10   11 2
  23   11   12 1
  24   11   36 1
  25   12   19 1
  26   14   15 1
  27   14   16 2
  28   15   25 ar
  29   15   29 ar
  30   17   37 1
  31   17   38 1
  32   17   39 1
  33   18   40 1
  34   18   41 1
  35   18   42 1
  36   19   20 ar
  37   19   24 ar
  38   20   21 ar
  39   20   43 1
  40   21   22 ar
  41   21   44 1
  42   22   23 ar
  43   22   45 1
  44   23   24 ar
  45   23   46 1
  46   24   47 1
  47   25   26 ar
  48   25   48 1
  49   26   27 ar
  50   26   49 1
  51   27   28 ar
  52   27   50 1
  53   28   29 ar
  54   28   51 1
  55   29   52 1

#	End of record

