#	Name: ASD03090683
#	Creating user name:	WinNT
#	Creation time:	15. 06. 2019 20:29

#	Modifying user name:	WinNT
#	Modification time:	15. 06. 2019 20:29

#	Program:	/corina/corina34_cracker 3.40 0067  02.08.2006

@<TRIPOS>MOLECULE
ASD03090683
  35   36    0    0    0
SMALL
NO_CHARGES


@<TRIPOS>ATOM
   1 N1            -0.0082     1.3368    -0.4209 N.am    
   2 C2            -0.1068     0.1852     0.2724 C.2     
   3 O3             0.8231    -0.1928     0.9586 O.2     
   4 N4            -1.2360    -0.5474     0.2049 N.am    
   5 S5            -2.6986    -2.7759     0.9400 S.3     
   6 C6            -1.3377    -1.7357     0.9202 C.2     
   7 N7            -0.4163    -2.2411     1.6837 N.2     
   8 N8            -0.6701    -3.3331     2.2642 N.2     
   9 C9            -1.8361    -3.8506     2.0412 C.2     
  10 C10           -2.3615    -5.1398     2.6183 C.3     
  11 F11           -1.4366    -5.6515     3.5349 F       
  12 F12           -3.5771    -4.8989     3.2675 F       
  13 F13           -2.5584    -6.0658     1.5883 F       
  14 C14            1.1143     2.1596    -0.2568 C.ar    
  15 C15            0.9599     3.5371    -0.1752 C.ar    
  16 C16            2.0662     4.3472    -0.0130 C.ar    
  17 C17            3.3320     3.7850     0.0679 C.ar    
  18 C18            3.4870     2.4092    -0.0135 C.ar    
  19 C19            2.3806     1.5974    -0.1699 C.ar    
  20 N20           -0.3905     4.1371    -0.2625 N.pl3   
  21 O21           -0.5184     5.3481    -0.2864 O.2     
  22 O22           -1.3737     3.4198    -0.3105 O.2     
  23 O23            4.4212     4.5834     0.2267 O.3     
  24 C24            5.6936     3.9374     0.3025 C.3     
  25 C25            6.7901     4.9896     0.4796 C.3     
  26 H26           -0.7123     1.5942    -1.0363 H       
  27 H27           -1.9778    -0.2459    -0.3426 H       
  28 H28            1.9462     5.4186     0.0505 H       
  29 H29            4.4726     1.9722     0.0496 H       
  30 H30            2.5010     0.5257    -0.2289 H       
  31 H31            5.7045     3.2547     1.1522 H       
  32 H32            5.8721     3.3776    -0.6156 H       
  33 H33            7.7606     4.4968     0.5374 H       
  34 H34            6.7792     5.6723    -0.3701 H       
  35 H35            6.6116     5.5494     1.3977 H       
@<TRIPOS>BOND
   1    1    2 am
   2    1   14 1
   3    1   26 1
   4    2    3 2
   5    2    4 am
   6    4    6 1
   7    4   27 1
   8    5    6 1
   9    5    9 1
  10    6    7 2
  11    7    8 1
  12    8    9 2
  13    9   10 1
  14   10   11 1
  15   10   12 1
  16   10   13 1
  17   14   15 ar
  18   14   19 ar
  19   15   16 ar
  20   15   20 1
  21   16   17 ar
  22   16   28 1
  23   17   18 ar
  24   17   23 1
  25   18   19 ar
  26   18   29 1
  27   19   30 1
  28   20   21 2
  29   20   22 2
  30   23   24 1
  31   24   25 1
  32   24   31 1
  33   24   32 1
  34   25   33 1
  35   25   34 1
  36   25   35 1

#	End of record

