#	Name: ASD01913874
#	Creating user name:	WinNT
#	Creation time:	15. 06. 2019 20:02

#	Modifying user name:	WinNT
#	Modification time:	15. 06. 2019 20:02

#	Program:	/corina/corina34_cracker 3.40 0067  02.08.2006

@<TRIPOS>MOLECULE
ASD01913874
  48   51    0    0    0
SMALL
NO_CHARGES


@<TRIPOS>ATOM
   1 C1            -0.0173     1.4278     0.0099 C.ar    
   2 C2             0.0021    -0.0041     0.0020 C.1     
   3 C3             0.0180    -1.1779    -0.0044 C.1     
   4 C4             0.0374    -2.6098    -0.0123 C.ar    
   5 C5            -1.1615    -3.3383    -0.0048 C.ar    
   6 C6             0.1560    -5.3344    -0.0280 C.ar    
   7 N7             1.2706    -4.6189    -0.0406 N.ar    
   8 C8             1.2501    -3.3022    -0.0334 C.ar    
   9 C9            -1.0911    -4.7169    -0.0128 C.ar    
  10 C10            1.1757     2.1548     0.0024 C.ar    
  11 N11            1.1569     3.4714     0.0096 N.ar    
  12 C12           -1.2336     2.1243     0.0194 C.ar    
  13 C13            0.0271     4.1523     0.0236 C.ar    
  14 C14           -1.1969     3.5069     0.0262 C.ar    
  15 N15            0.2331    -6.7250    -0.0364 N.am    
  16 C16           -0.8027    -7.6034    -0.1209 C.2     
  17 N17           -0.3982    -8.8752    -0.3857 N.am    
  18 C18            0.9941    -8.7736    -0.7912 C.3     
  19 C19            1.4368    -7.5361     0.0367 C.3     
  20 C20            1.9521    -9.8912    -0.4365 C.3     
  21 C21            3.3345    -9.4635    -0.9674 C.3     
  22 C22            3.7774    -8.1292    -0.3765 C.3     
  23 C23            2.7185    -7.0331    -0.5867 C.3     
  24 C24           -1.2010   -10.0964    -0.2831 C.3     
  25 C25           -1.8914   -10.3667    -1.6214 C.3     
  26 O26           -1.9670    -7.2853     0.0252 O.2     
  27 H27           -2.1160    -2.8330     0.0074 H       
  28 H28            2.1798    -2.7526    -0.0442 H       
  29 H29           -1.9938    -5.3097    -0.0070 H       
  30 H30            2.1210     1.6326    -0.0091 H       
  31 H31           -2.1751     1.5951     0.0209 H       
  32 H32            0.0580     5.2319     0.0295 H       
  33 H33           -2.1141     4.0770     0.0374 H       
  34 H34            1.0552    -8.5460    -1.8554 H       
  35 H35            1.6164    -7.8285     1.0713 H       
  36 H36            1.9908   -10.0215     0.6450 H       
  37 H37            1.6383   -10.8188    -0.9151 H       
  38 H38            4.0670   -10.2279    -0.7080 H       
  39 H39            3.2861    -9.3732    -2.0526 H       
  40 H40            3.9575    -8.2564     0.6910 H       
  41 H41            4.7056    -7.8193    -0.8567 H       
  42 H42            2.5750    -6.8538    -1.6522 H       
  43 H43            3.0315    -6.1135    -0.0924 H       
  44 H44           -0.5538   -10.9367    -0.0319 H       
  45 H45           -1.9536    -9.9721     0.4955 H       
  46 H46           -2.5387    -9.5264    -1.8726 H       
  47 H47           -1.1388   -10.4910    -2.4000 H       
  48 H48           -2.4888   -11.2753    -1.5451 H       
@<TRIPOS>BOND
   1    1    2 1
   2    1   10 ar
   3    1   12 ar
   4    2    3 3
   5    3    4 1
   6    4    5 ar
   7    4    8 ar
   8    5    9 ar
   9    5   27 1
  10    6    7 ar
  11    6   15 1
  12    6    9 ar
  13    7    8 ar
  14    8   28 1
  15    9   29 1
  16   10   11 ar
  17   10   30 1
  18   11   13 ar
  19   12   14 ar
  20   12   31 1
  21   13   14 ar
  22   13   32 1
  23   14   33 1
  24   15   16 am
  25   15   19 1
  26   16   17 am
  27   16   26 2
  28   17   18 1
  29   17   24 1
  30   18   19 1
  31   18   20 1
  32   18   34 1
  33   19   23 1
  34   19   35 1
  35   20   21 1
  36   20   36 1
  37   20   37 1
  38   21   22 1
  39   21   38 1
  40   21   39 1
  41   22   23 1
  42   22   40 1
  43   22   41 1
  44   23   42 1
  45   23   43 1
  46   24   25 1
  47   24   44 1
  48   24   45 1
  49   25   46 1
  50   25   47 1
  51   25   48 1

#	End of record

