#	Name: ASD01815999
#	Creating user name:	WinNT
#	Creation time:	15. 06. 2019 19:34

#	Modifying user name:	WinNT
#	Modification time:	15. 06. 2019 19:34

#	Program:	/corina/corina34_cracker 3.40 0067  02.08.2006

@<TRIPOS>MOLECULE
ASD01815999
  41   45    0    0    0
SMALL
NO_CHARGES


@<TRIPOS>ATOM
   1 C1            -0.0167     1.3813     0.0096 C.ar    
   2 C2             0.0021    -0.0041     0.0020 C.ar    
   3 C3             1.1984    -0.6908    -0.0127 C.ar    
   4 C4             2.4014     0.0060    -0.0200 C.ar    
   5 C5             2.3791     1.4106    -0.0127 C.ar    
   6 C6             1.1663     2.0916     0.0022 C.ar    
   7 N7             3.6064    -0.6778    -0.0338 N.pl3   
   8 C8             4.7991    -0.0574    -0.0409 C.2     
   9 C9             4.9004     1.3118    -0.0349 C.2     
  10 C10            3.6669     2.1304    -0.0207 C.2     
  11 C11            5.9968     2.2754    -0.0395 C.2     
  12 N12            5.4233     3.4980    -0.0289 N.am    
  13 N13            4.0312     3.3808    -0.0178 N.2     
  14 C14            6.1242     4.7107    -0.0284 C.ar    
  15 O15            7.1914     2.0263    -0.0504 O.2     
  16 C16            3.5809    -2.0774    -0.0401 C.ar    
  17 C17            6.5537     5.2668    -1.2259 C.ar    
  18 C18            7.2447     6.4628    -1.2223 C.ar    
  19 C19            7.5101     7.1073    -0.0278 C.ar    
  20 C20            7.0846     6.5577     1.1675 C.ar    
  21 C21            6.3868     5.3636     1.1712 C.ar    
  22 F22            5.9710     4.8265     2.3390 F       
  23 C23            3.5788    -2.7801     1.1602 C.ar    
  24 C24            3.5518    -2.7676    -1.2447 C.ar    
  25 C25            3.5261    -4.1485    -1.2478 C.ar    
  26 C26            3.5294    -4.8454    -0.0531 C.ar    
  27 C27            3.5530    -4.1630     1.1491 C.ar    
  28 F28            3.6023    -2.1132     2.3349 F       
  29 H29           -0.9602     1.9069     0.0170 H       
  30 H30           -0.9288    -0.5516     0.0080 H       
  31 H31            1.2005    -1.7708    -0.0181 H       
  32 H32            1.1506     3.1715     0.0081 H       
  33 H33            5.7010    -0.6515    -0.0513 H       
  34 H34            6.3479     4.7644    -2.1595 H       
  35 H35            7.5787     6.8952    -2.1539 H       
  36 H36            8.0513     8.0419    -0.0286 H       
  37 H37            7.2935     7.0636     2.0986 H       
  38 H38            3.5489    -2.2250    -2.1785 H       
  39 H39            3.5032    -4.6852    -2.1848 H       
  40 H40            3.5089    -5.9252    -0.0593 H       
  41 H41            3.5558    -4.7102     2.0802 H       
@<TRIPOS>BOND
   1    1    2 ar
   2    1    6 ar
   3    1   29 1
   4    2    3 ar
   5    2   30 1
   6    3    4 ar
   7    3   31 1
   8    4    5 ar
   9    4    7 1
  10    5    6 ar
  11    5   10 1
  12    6   32 1
  13    7    8 1
  14    7   16 1
  15    8    9 2
  16    8   33 1
  17    9   10 1
  18    9   11 1
  19   10   13 2
  20   11   12 am
  21   11   15 2
  22   12   13 1
  23   12   14 1
  24   14   17 ar
  25   14   21 ar
  26   16   23 ar
  27   16   24 ar
  28   17   18 ar
  29   17   34 1
  30   18   19 ar
  31   18   35 1
  32   19   20 ar
  33   19   36 1
  34   20   21 ar
  35   20   37 1
  36   21   22 1
  37   23   28 1
  38   23   27 ar
  39   24   25 ar
  40   24   38 1
  41   25   26 ar
  42   25   39 1
  43   26   27 ar
  44   26   40 1
  45   27   41 1

#	End of record

