#	Name: ASD01948163
#	Creating user name:	WinNT
#	Creation time:	15. 06. 2019 20:13

#	Modifying user name:	WinNT
#	Modification time:	15. 06. 2019 20:13

#	Program:	/corina/corina34_cracker 3.40 0067  02.08.2006

@<TRIPOS>MOLECULE
ASD01948163
  48   50    0    0    0
SMALL
NO_CHARGES


@<TRIPOS>ATOM
   1 C1             1.7916     1.4243    -1.0483 C.ar    
   2 C2             1.5993     0.0484    -1.1458 C.ar    
   3 C3             1.7826    -0.5967    -2.3626 C.ar    
   4 C4             2.1555     0.1234    -3.4776 C.ar    
   5 C5             2.3488     1.5025    -3.3844 C.ar    
   6 C6             2.1588     2.1506    -2.1621 C.ar    
   7 N7             1.2218    -0.6848    -0.0175 N.pl3   
   8 C8             3.6354    -2.2730    -0.4424 C.2     
   9 C9             2.3571    -2.8659    -0.2923 C.2     
  10 C10            1.1550    -2.0621    -0.0800 C.2     
  11 N11            4.6939    -3.0917    -0.6399 N.am    
  12 F12            1.6131     2.0487     0.1363 F       
  13 C13            2.2467    -4.2625    -0.3492 C.2     
  14 N14            1.0216    -4.8511    -0.2059 N.am    
  15 C15           -0.0893    -4.1213    -0.0104 C.2     
  16 C16           -0.0541    -2.7258     0.0571 C.2     
  17 C17            4.5203    -4.4331    -0.6901 C.2     
  18 N18            3.3516    -4.9955    -0.5435 N.2     
  19 O19            3.7759    -1.0635    -0.3999 O.2     
  20 C20            0.9174    -6.3111    -0.2669 C.3     
  21 O21           -1.1603    -4.6936     0.1110 O.2     
  22 C22            2.7366     2.2523    -4.5412 C.1     
  23 C23            6.0347    -2.5237    -0.8009 C.3     
  24 C24            6.7062    -2.4053     0.5688 C.3     
  25 C25           -1.3248    -1.9463     0.2783 C.3     
  26 C26            3.0545     2.8669    -5.4896 C.1     
  27 C27            8.1065    -1.8121     0.4007 C.3     
  28 O28            5.9258    -1.5534     1.4098 O.3     
  29 O29            8.7772    -1.8092     1.6625 O.3     
  30 H30            1.6331    -1.6639    -2.4351 H       
  31 H31            2.2983    -0.3794    -4.4227 H       
  32 H32            2.3076     3.2177    -2.0869 H       
  33 H33            1.0067    -0.2258     0.8095 H       
  34 H34            5.3832    -5.0628    -0.8494 H       
  35 H35            1.0357    -6.7259     0.7340 H       
  36 H36           -0.0594    -6.5894    -0.6625 H       
  37 H37            1.6984    -6.7042    -0.9178 H       
  38 H38            6.6300    -3.1735    -1.4424 H       
  39 H39            5.9587    -1.5356    -1.2549 H       
  40 H40            6.7823    -3.3933     1.0228 H       
  41 H41           -2.1752    -2.6281     0.2714 H       
  42 H42           -1.2755    -1.4366     1.2405 H       
  43 H43           -1.4427    -1.2104    -0.5171 H       
  44 H44            3.3388     3.4167    -6.3377 H       
  45 H45            8.6728    -2.4134    -0.3105 H       
  46 H46            8.0261    -0.7903     0.0297 H       
  47 H47            5.8162    -0.6558     1.0672 H       
  48 H48            9.6727    -1.4458     1.6311 H       
@<TRIPOS>BOND
   1    1    2 ar
   2    1   12 1
   3    1    6 ar
   4    2    3 ar
   5    2    7 1
   6    3    4 ar
   7    3   30 1
   8    4    5 ar
   9    4   31 1
  10    5    6 ar
  11    5   22 1
  12    6   32 1
  13    7   10 1
  14    7   33 1
  15    8    9 1
  16    8   19 2
  17    8   11 am
  18    9   10 1
  19    9   13 2
  20   10   16 2
  21   11   17 1
  22   11   23 1
  23   13   14 1
  24   13   18 1
  25   14   15 am
  26   14   20 1
  27   15   16 1
  28   15   21 2
  29   16   25 1
  30   17   18 2
  31   17   34 1
  32   20   35 1
  33   20   36 1
  34   20   37 1
  35   22   26 3
  36   23   24 1
  37   23   38 1
  38   23   39 1
  39   24   27 1
  40   24   28 1
  41   24   40 1
  42   25   41 1
  43   25   42 1
  44   25   43 1
  45   26   44 1
  46   27   29 1
  47   27   45 1
  48   27   46 1
  49   28   47 1
  50   29   48 1

#	End of record

