#	Name: ASD00070114
#	Creating user name:	WinNT
#	Creation time:	15. 06. 2019 18:30

#	Modifying user name:	WinNT
#	Modification time:	15. 06. 2019 18:30

#	Program:	/corina/corina34_cracker 3.40 0067  02.08.2006

@<TRIPOS>MOLECULE
ASD00070114
  58   61    0    0    0
SMALL
NO_CHARGES


@<TRIPOS>ATOM
   1 C1            -0.0187     1.5258     0.0104 C.3     
   2 C2             0.0021    -0.0041     0.0020 C.3     
   3 C3             0.7421    -0.5109     1.2415 C.3     
   4 C4             2.1775     0.0187     1.2307 C.3     
   5 C5             2.1567     1.5485     1.2391 C.3     
   6 C6             1.4167     2.0553    -0.0004 C.3     
   7 C7             2.9174    -0.4882     2.4702 C.3     
   8 C8             4.3854    -0.0630     2.3972 C.3     
   9 N9             5.0959    -0.5497     3.5873 N.3     
  10 C10            6.5463    -0.3701     3.4444 C.3     
  11 C11            7.2613    -1.0172     4.6327 C.3     
  12 C12            6.7732    -0.3683     5.9309 C.3     
  13 C13            5.2537    -0.5270     6.0317 C.3     
  14 C14            4.5969     0.1059     4.8029 C.3     
  15 O15            9.5670    -0.0196     9.7709 O.3     
  16 C16            9.1340     1.3127     9.4480 C.3     
  17 C17            8.5930     1.1575     8.0070 C.3     
  18 C18            8.2136    -0.3103     7.9716 C.ar    
  19 C19            8.8318    -0.9165     9.0581 C.ar    
  20 C20            7.4293    -1.0421     7.1084 C.ar    
  21 C21            7.2432    -2.3967     7.3227 C.ar    
  22 C22            7.8470    -3.0096     8.4048 C.ar    
  23 C23            8.6358    -2.2788     9.2693 C.ar    
  24 C24           -0.7475     2.0250    -1.2105 C.2     
  25 O25           -1.2053     1.2350    -2.0087 O.2     
  26 N26           -0.8907     3.3494    -1.4153 N.am    
  27 H27           -0.5289     1.8773     0.9072 H       
  28 H28           -1.0205    -0.3814     0.0098 H       
  29 H29            0.5123    -0.3556    -0.8948 H       
  30 H30            0.2319    -0.1594     2.1383 H       
  31 H31            0.7568    -1.6008     1.2356 H       
  32 H32            2.6876    -0.3328     0.3339 H       
  33 H33            1.6465     1.9000     2.1359 H       
  34 H34            3.1793     1.9258     1.2314 H       
  35 H35            1.9269     1.7038    -0.8972 H       
  36 H36            1.4019     3.1452     0.0056 H       
  37 H37            2.4606    -0.0646     3.3646 H       
  38 H38            2.8557    -1.5756     2.5109 H       
  39 H39            4.8423    -0.4866     1.5028 H       
  40 H40            4.4471     1.0244     2.3565 H       
  41 H41            6.8810    -0.8398     2.5195 H       
  42 H42            6.7794     0.6943     3.4161 H       
  43 H43            7.0397    -2.0843     4.6536 H       
  44 H44            8.3368    -0.8702     4.5343 H       
  45 H45            7.0294     0.6912     5.9271 H       
  46 H46            5.0005    -1.5863     6.0746 H       
  47 H47            4.8948    -0.0297     6.9328 H       
  48 H48            4.8391     1.1681     4.7682 H       
  49 H49            3.5157    -0.0180     4.8646 H       
  50 H50            8.3431     1.6363    10.1247 H       
  51 H51            9.9731     2.0080     9.4726 H       
  52 H52            7.7193     1.7896     7.8486 H       
  53 H53            9.3690     1.3771     7.2737 H       
  54 H54            6.6282    -2.9728     6.6473 H       
  55 H55            7.7001    -4.0660     8.5746 H       
  56 H56            9.1041    -2.7655    10.1121 H       
  57 H57           -0.5245     3.9812    -0.7768 H       
  58 H58           -1.3598     3.6707    -2.2011 H       
@<TRIPOS>BOND
   1    1    2 1
   2    1    6 1
   3    1   24 1
   4    1   27 1
   5    2    3 1
   6    2   28 1
   7    2   29 1
   8    3    4 1
   9    3   30 1
  10    3   31 1
  11    4    5 1
  12    4    7 1
  13    4   32 1
  14    5    6 1
  15    5   33 1
  16    5   34 1
  17    6   35 1
  18    6   36 1
  19    7    8 1
  20    7   37 1
  21    7   38 1
  22    8    9 1
  23    8   39 1
  24    8   40 1
  25    9   10 1
  26    9   14 1
  27   10   11 1
  28   10   41 1
  29   10   42 1
  30   11   12 1
  31   11   43 1
  32   11   44 1
  33   12   13 1
  34   12   20 1
  35   12   45 1
  36   13   14 1
  37   13   46 1
  38   13   47 1
  39   14   48 1
  40   14   49 1
  41   15   16 1
  42   15   19 1
  43   16   17 1
  44   16   50 1
  45   16   51 1
  46   17   18 1
  47   17   52 1
  48   17   53 1
  49   18   19 ar
  50   18   20 ar
  51   19   23 ar
  52   20   21 ar
  53   21   22 ar
  54   21   54 1
  55   22   23 ar
  56   22   55 1
  57   23   56 1
  58   24   25 2
  59   24   26 am
  60   26   57 1
  61   26   58 1

#	End of record

