#	Name: ASD01883123
#	Creating user name:	WinNT
#	Creation time:	15. 06. 2019 19:45

#	Modifying user name:	WinNT
#	Modification time:	15. 06. 2019 19:45

#	Program:	/corina/corina34_cracker 3.40 0067  02.08.2006

@<TRIPOS>MOLECULE
ASD01883123
  32   33    0    0    0
SMALL
NO_CHARGES


@<TRIPOS>ATOM
   1 N1            -0.0162     1.3415     0.0094 N.am    
   2 C2             0.0021    -0.0041     0.0020 C.2     
   3 C3            -1.2144    -0.7274     0.0102 C.2     
   4 C4            -2.4281    -0.0089     0.0261 C.2     
   5 C5            -2.3786     1.4027     0.0332 C.2     
   6 C6            -1.1855     2.0348     0.0299 C.2     
   7 O7             1.0660    -0.5997    -0.0122 O.2     
   8 C8            -1.2131    -2.1594     0.0021 C.1     
   9 N9            -1.2121    -3.2954    -0.0044 N.1     
  10 C10            1.2518     2.0753     0.0013 C.3     
  11 C11            1.6794     2.3385    -1.4440 C.3     
  12 C12            0.6678     3.2709    -2.1134 C.3     
  13 C13           -3.7164    -0.7137     0.0347 C.2     
  14 C14           -4.6275    -0.6873     1.0523 C.2     
  15 C15           -5.7512    -1.4391     0.7958 C.2     
  16 C16           -5.7604    -2.0590    -0.3892 C.2     
  17 S17           -4.3366    -1.7208    -1.2664 S.3     
  18 C18            3.0621     2.9934    -1.4555 C.3     
  19 H19           -3.2940     1.9757     0.0451 H       
  20 H20           -1.1596     3.1145     0.0354 H       
  21 H21            1.1254     3.0248     0.5214 H       
  22 H22            2.0169     1.4842     0.5046 H       
  23 H23            1.7197     1.3951    -1.9885 H       
  24 H24            0.6275     4.2143    -1.5689 H       
  25 H25            0.9725     3.4584    -3.1430 H       
  26 H26           -0.3172     2.8043    -2.1052 H       
  27 H27           -4.4803    -0.1322     1.9670 H       
  28 H28           -6.5658    -1.5226     1.4999 H       
  29 H29           -6.5641    -2.6864    -0.7454 H       
  30 H30            3.7828     2.3292    -0.9786 H       
  31 H31            3.3667     3.1809    -2.4851 H       
  32 H32            3.0218     3.9368    -0.9110 H       
@<TRIPOS>BOND
   1    1    2 am
   2    1   10 1
   3    1    6 1
   4    2    3 1
   5    2    7 2
   6    3    4 2
   7    3    8 1
   8    4    5 1
   9    4   13 1
  10    5    6 2
  11    5   19 1
  12    6   20 1
  13    8    9 3
  14   10   11 1
  15   10   21 1
  16   10   22 1
  17   11   12 1
  18   11   18 1
  19   11   23 1
  20   12   24 1
  21   12   25 1
  22   12   26 1
  23   13   14 2
  24   13   17 1
  25   14   15 1
  26   14   27 1
  27   15   16 2
  28   15   28 1
  29   16   17 1
  30   16   29 1
  31   18   30 1
  32   18   31 1
  33   18   32 1

#	End of record

