#	Name: ASD00431172
#	Creating user name:	WinNT
#	Creation time:	15. 06. 2019 18:35

#	Modifying user name:	WinNT
#	Modification time:	15. 06. 2019 18:35

#	Program:	/corina/corina34_cracker 3.40 0067  02.08.2006

@<TRIPOS>MOLECULE
ASD00431172
  51   53    0    0    0
SMALL
NO_CHARGES


@<TRIPOS>ATOM
   1 C1            -0.2179     1.2180     0.0385 C.2     
   2 C2            -0.3230    -0.2824    -0.0553 C.3     
   3 O3             0.8711     1.7457     0.1200 O.2     
   4 N4            -1.3337     1.9738     0.0262 N.am    
   5 C5            -1.2316     3.4323     0.1173 C.3     
   6 C6            -0.9978     4.0154    -1.2778 C.3     
   7 O7            -3.7562     3.5830     0.4080 O.3     
   8 N8            -4.5847     4.2186     1.0175 N.2     
   9 C9            -4.0260     5.1268     1.7789 C.2     
  10 C10           -2.6225     5.0003     1.5798 C.2     
  11 C11           -2.5099     3.9908     0.6874 C.2     
  12 C12           -4.7169     6.0921     2.6689 C.ar    
  13 C13           -6.1081     6.0900     2.7551 C.ar    
  14 C14           -6.7476     6.9882     3.5829 C.ar    
  15 C15           -6.0069     7.8945     4.3304 C.ar    
  16 C16           -4.6206     7.8991     4.2461 C.ar    
  17 C17           -3.9757     6.9990     3.4246 C.ar    
  18 O18           -6.6394     8.7783     5.1452 O.3     
  19 C19           -7.2731     8.2923     6.2429 C.ar    
  20 C20           -7.8465     9.1731     7.1510 C.ar    
  21 C21           -8.4900     8.6674     8.2666 C.ar    
  22 C22           -8.5374     7.2862     8.4356 C.ar    
  23 C23           -7.9430     6.4690     7.4881 C.ar    
  24 N24           -7.3421     6.9856     6.4328 N.ar    
  25 O25           -9.1592     6.7461     9.5177 O.3     
  26 C26           -9.6764     7.6564    10.4902 C.3     
  27 C27          -10.7843     6.9707    11.2923 C.3     
  28 C28           -8.5527     8.0851    11.4359 C.3     
  29 H29            0.6758    -0.7186    -0.0350 H       
  30 H30           -0.9013    -0.6596     0.7882 H       
  31 H31           -0.8194    -0.5544    -0.9868 H       
  32 H32           -2.2045     1.5519    -0.0430 H       
  33 H33           -0.3975     3.6983     0.7667 H       
  34 H34           -1.8318     3.7495    -1.9271 H       
  35 H35           -0.9217     5.1006    -1.2099 H       
  36 H36           -0.0731     3.6115    -1.6901 H       
  37 H37           -1.8312     5.5772     2.0353 H       
  38 H38           -6.6847     5.3857     2.1738 H       
  39 H39           -7.8255     6.9873     3.6499 H       
  40 H40           -4.0471     8.6054     4.8280 H       
  41 H41           -2.8974     6.9996     3.3634 H       
  42 H42           -7.7905    10.2393     6.9885 H       
  43 H43           -8.9446     9.3286     8.9895 H       
  44 H44           -7.9752     5.3967     7.6123 H       
  45 H45          -10.0822     8.5340     9.9868 H       
  46 H46          -10.3785     6.0932    11.7956 H       
  47 H47          -11.1788     7.6651    12.0341 H       
  48 H48          -11.5848     6.6654    10.6185 H       
  49 H49           -8.9472     8.7795    12.1778 H       
  50 H50           -8.1469     7.2075    11.9393 H       
  51 H51           -7.7634     8.5736    10.8645 H       
@<TRIPOS>BOND
   1    1    2 1
   2    1    3 2
   3    1    4 am
   4    2   29 1
   5    2   30 1
   6    2   31 1
   7    4    5 1
   8    4   32 1
   9    5    6 1
  10    5   11 1
  11    5   33 1
  12    6   34 1
  13    6   35 1
  14    6   36 1
  15    7    8 1
  16    7   11 1
  17    8    9 2
  18    9   10 1
  19    9   12 1
  20   10   11 2
  21   10   37 1
  22   12   13 ar
  23   12   17 ar
  24   13   14 ar
  25   13   38 1
  26   14   15 ar
  27   14   39 1
  28   15   16 ar
  29   15   18 1
  30   16   17 ar
  31   16   40 1
  32   17   41 1
  33   18   19 1
  34   19   20 ar
  35   19   24 ar
  36   20   21 ar
  37   20   42 1
  38   21   22 ar
  39   21   43 1
  40   22   23 ar
  41   22   25 1
  42   23   24 ar
  43   23   44 1
  44   25   26 1
  45   26   27 1
  46   26   28 1
  47   26   45 1
  48   27   46 1
  49   27   47 1
  50   27   48 1
  51   28   49 1
  52   28   50 1
  53   28   51 1

#	End of record

