#	Name: ASD00451003
#	Creating user name:	WinNT
#	Creation time:	15. 06. 2019 18:36

#	Modifying user name:	WinNT
#	Modification time:	15. 06. 2019 18:36

#	Program:	/corina/corina34_cracker 3.40 0067  02.08.2006

@<TRIPOS>MOLECULE
ASD00451003
  49   52    0    0    0
SMALL
NO_CHARGES


@<TRIPOS>ATOM
   1 C1             0.5061     0.6827     0.3955 C.ar    
   2 C2             0.9007    -0.6388     0.5525 C.ar    
   3 N3             1.4700     1.6880     0.2426 N.am    
   4 C4            -0.8437     1.0079     0.3841 C.ar    
   5 C5            -0.0487    -1.6320     0.7030 C.ar    
   6 C6             2.6574     1.5844     0.8719 C.2     
   7 C7            -1.7954     0.0127     0.5296 C.ar    
   8 C8            -1.3964    -1.3105     0.6979 C.ar    
   9 O9             2.8574     0.6682     1.6458 O.2     
  10 N10            3.6230     2.4965     0.6433 N.am    
  11 O11           -2.3299    -2.2896     0.8409 O.3     
  12 C12            4.8152     2.4521     1.3757 C.ar    
  13 C13           -2.8947    -2.8010    -0.2830 C.ar    
  14 C14            6.0045     2.8702     0.7941 C.ar    
  15 C15            4.8094     1.9951     2.6871 C.ar    
  16 C16           -3.7823    -3.8721    -0.2147 C.ar    
  17 C17           -2.6073    -2.2652    -1.5365 C.ar    
  18 C18            7.1796     2.8253     1.5188 C.ar    
  19 C19            5.9868     1.9522     3.4073 C.ar    
  20 N20           -4.2911    -4.6348     0.8346 N.am    
  21 C21           -4.3434    -4.3706    -1.3906 C.ar    
  22 C22           -3.2015    -2.8119    -2.6560 C.ar    
  23 C23            7.1721     2.3638     2.8232 C.ar    
  24 C24           -5.1253    -5.5567     0.3168 C.2     
  25 N25           -5.1723    -5.4227    -1.0217 N.am    
  26 N26           -4.0352    -3.8303    -2.5600 N.ar    
  27 Cl27           8.6507     2.3082     3.7311 Cl      
  28 O28           -5.7385    -6.3877     0.9603 O.2     
  29 H29            1.2828     2.4585    -0.3161 H       
  30 H30            3.4918     3.1837    -0.0286 H       
  31 H31           -4.0809    -4.5215     1.7748 H       
  32 H32           -5.7005    -5.9665    -1.6269 H       
  33 O33           -3.1179     0.3288     0.5187 O.3     
  34 C34           -3.4540     1.7078     0.3533 C.3     
  35 C35            8.4709     3.2790     0.8882 C.3     
  36 F36            8.2270     3.6978    -0.4242 F       
  37 F37            9.0019     4.3424     1.6260 F       
  38 F38            9.3826     2.2179     0.8773 F       
  39 H39            1.9507    -0.8914     0.5568 H       
  40 H40           -1.1510     2.0360     0.2624 H       
  41 H41            0.2602    -2.6597     0.8244 H       
  42 H42            6.0110     3.2299    -0.2243 H       
  43 H43            3.8847     1.6738     3.1434 H       
  44 H44           -1.9275    -1.4314    -1.6312 H       
  45 H45            5.9828     1.5969     4.4272 H       
  46 H46           -2.9805    -2.3980    -3.6288 H       
  47 H47           -3.0594     2.0664    -0.5974 H       
  48 H48           -4.5381     1.8211     0.3626 H       
  49 H49           -3.0210     2.2876     1.1683 H       
@<TRIPOS>BOND
   1    1    2 ar
   2    1    3 1
   3    1    4 ar
   4    2    5 ar
   5    2   39 1
   6    3   29 1
   7    3    6 am
   8    4    7 ar
   9    4   40 1
  10    5    8 ar
  11    5   41 1
  12    6    9 2
  13    6   10 am
  14    7   33 1
  15    7    8 ar
  16    8   11 1
  17   10   12 1
  18   10   30 1
  19   11   13 1
  20   12   14 ar
  21   12   15 ar
  22   13   16 ar
  23   13   17 ar
  24   14   18 ar
  25   14   42 1
  26   15   19 ar
  27   15   43 1
  28   16   20 1
  29   16   21 ar
  30   17   22 ar
  31   17   44 1
  32   18   23 ar
  33   18   35 1
  34   19   23 ar
  35   19   45 1
  36   20   31 1
  37   20   24 am
  38   21   26 ar
  39   21   25 1
  40   22   26 ar
  41   22   46 1
  42   23   27 1
  43   24   25 am
  44   24   28 2
  45   25   32 1
  46   33   34 1
  47   34   47 1
  48   34   48 1
  49   34   49 1
  50   35   36 1
  51   35   37 1
  52   35   38 1

#	End of record

