#	Name: ASD03331627
#	Creating user name:	WinNT
#	Creation time:	15. 06. 2019 20:39

#	Modifying user name:	WinNT
#	Modification time:	15. 06. 2019 20:39

#	Program:	/corina/corina34_cracker 3.40 0067  02.08.2006

@<TRIPOS>MOLECULE
ASD03331627
  55   58    0    0    0
SMALL
NO_CHARGES


@<TRIPOS>ATOM
   1 C1            -0.3979     1.5544    -0.0229 C.3     
   2 C2            -0.4362     0.0259    -0.0410 C.3     
   3 C3             0.5874    -0.6276     0.8779 C.3     
   4 C4             2.0131    -0.3166     0.4251 C.3     
   5 C5             1.9484     0.9464    -0.4068 C.2     
   6 C6             1.0389     2.0590     0.0496 C.3     
   7 C7             1.2531     3.3441    -0.7736 C.3     
   8 C8             2.6763     1.0247    -1.4817 C.2     
   9 C9             2.6611     2.1994    -2.4146 C.3     
  10 C10            1.3259     2.9375    -2.2456 C.3     
  11 C11            0.1226     5.5353    -1.4444 C.3     
  12 C12            0.1160     4.3239    -0.5241 C.3     
  13 C13            1.2680     5.4648    -2.4391 C.3     
  14 C14            1.1398     6.4250    -3.6396 C.3     
  15 C15            1.2178     4.1267    -3.1650 C.3     
  16 C16            2.2969     4.3438    -4.2408 C.3     
  17 C17            1.8654     5.7203    -4.7872 C.3     
  18 C18            1.8067     7.7344    -3.3170 C.2     
  19 C19            1.0416     8.8113    -2.5918 C.3     
  20 O20            2.9553     7.9225    -3.6391 O.2     
  21 O21            0.3826    -0.2286     2.2299 O.3     
  22 C22            1.3810     2.4062     1.4997 C.3     
  23 C23            2.6106     5.7627    -1.7726 C.3     
  24 H24           -0.8748     1.9312    -0.9309 H       
  25 H25           -0.9561     1.9181     0.8428 H       
  26 H26           -1.4370    -0.3000     0.2594 H       
  27 H27           -0.2649    -0.3178    -1.0649 H       
  28 H28            0.4454    -1.7197     0.8246 H       
  29 H29            2.6650    -0.1720     1.2875 H       
  30 H30            2.3977    -1.1405    -0.1832 H       
  31 H31            2.2035     3.7562    -0.4415 H       
  32 H32            3.3280     0.1976    -1.7168 H       
  33 H33            3.4830     2.8668    -2.1696 H       
  34 H34            2.7553     1.8494    -3.4398 H       
  35 H35            0.5083     2.2250    -2.4592 H       
  36 H36           -0.8312     5.5870    -1.9860 H       
  37 H37            0.2142     6.4487    -0.8422 H       
  38 H38           -0.8436     3.8039    -0.6406 H       
  39 H39            0.1636     4.6797     0.5139 H       
  40 H40            0.0905     6.5705    -3.8797 H       
  41 H41            0.2392     4.0651    -3.6955 H       
  42 H42            3.2983     4.3657    -3.8367 H       
  43 H43            2.2129     3.5865    -5.0244 H       
  44 H44            1.1920     5.5884    -5.6330 H       
  45 H45            2.7426     6.2920    -5.0855 H       
  46 H46            0.0297     8.4621    -2.3860 H       
  47 H47            1.5437     9.0442    -1.6528 H       
  48 H48            0.9978     9.7064    -3.2122 H       
  49 H49            1.0098    -0.6182     2.8543 H       
  50 H50            1.2751     1.5169     2.1210 H       
  51 H51            2.4080     2.7673     1.5543 H       
  52 H52            0.7037     3.1819     1.8571 H       
  53 H53            2.7427     5.1066    -0.9123 H       
  54 H54            3.4164     5.5924    -2.4865 H       
  55 H55            2.6303     6.8017    -1.4435 H       
@<TRIPOS>BOND
   1    1    2 1
   2    1    6 1
   3    1   24 1
   4    1   25 1
   5    2    3 1
   6    2   26 1
   7    2   27 1
   8    3    4 1
   9    3   21 1
  10    3   28 1
  11    4    5 1
  12    4   29 1
  13    4   30 1
  14    5    8 2
  15    5    6 1
  16    6   22 1
  17    6    7 1
  18    7   10 1
  19    7   12 1
  20    7   31 1
  21    8    9 1
  22    8   32 1
  23    9   10 1
  24    9   33 1
  25    9   34 1
  26   10   15 1
  27   10   35 1
  28   11   12 1
  29   11   13 1
  30   11   36 1
  31   11   37 1
  32   12   38 1
  33   12   39 1
  34   13   15 1
  35   13   23 1
  36   13   14 1
  37   14   17 1
  38   14   18 1
  39   14   40 1
  40   15   16 1
  41   15   41 1
  42   16   17 1
  43   16   42 1
  44   16   43 1
  45   17   44 1
  46   17   45 1
  47   18   19 1
  48   18   20 2
  49   19   46 1
  50   19   47 1
  51   19   48 1
  52   21   49 1
  53   22   50 1
  54   22   51 1
  55   22   52 1
  56   23   53 1
  57   23   54 1
  58   23   55 1

#	End of record

