#	Name: ASD06130014
#	Creating user name:	WinNT
#	Creation time:	15. 06. 2019 21:05

#	Modifying user name:	WinNT
#	Modification time:	15. 06. 2019 21:05

#	Program:	/corina/corina34_cracker 3.40 0067  02.08.2006

@<TRIPOS>MOLECULE
ASD06130014
  17   17    0    0    0
SMALL
NO_CHARGES


@<TRIPOS>ATOM
   1 C1            -0.0156     1.3015     0.0092 C.2     
   2 N2             0.0021    -0.0041     0.0020 N.2     
   3 S3            -1.4519    -0.5744     0.0128 S.3     
   4 C4            -2.2888     0.9848     0.0291 C.2     
   5 C5            -1.2649     1.9243     0.0304 C.2     
   6 N6            -1.4585     3.2984     0.0417 N.pl3   
   7 C7            -3.7305     1.2290     0.0441 C.2     
   8 O8            -4.1542     2.3692     0.0538 O.2     
   9 O9            -4.5908     0.1897     0.0472 O.3     
  10 C10            1.2328     2.0860     0.0015 C.2     
  11 O11            1.1874     3.3011     0.0089 O.2     
  12 N12            2.4243     1.4562    -0.0138 N.am    
  13 H13           -2.3580     3.6614     0.0491 H       
  14 H14           -0.6944     3.8959     0.0422 H       
  15 H15           -5.5220     0.4500     0.0574 H       
  16 H16            2.4605     0.4869    -0.0197 H       
  17 H17            3.2456     1.9723    -0.0188 H       
@<TRIPOS>BOND
   1    1    2 2
   2    1   10 1
   3    1    5 1
   4    2    3 1
   5    3    4 1
   6    4    5 2
   7    4    7 1
   8    5    6 1
   9    6   13 1
  10    6   14 1
  11    7    8 2
  12    7    9 1
  13    9   15 1
  14   10   11 2
  15   10   12 am
  16   12   16 1
  17   12   17 1

#	End of record

