#	Name: ASD01120276
#	Creating user name:	WinNT
#	Creation time:	15. 06. 2019 18:59

#	Modifying user name:	WinNT
#	Modification time:	15. 06. 2019 18:59

#	Program:	/corina/corina34_cracker 3.40 0067  02.08.2006

@<TRIPOS>MOLECULE
ASD01120276
  35   37    0    0    0
SMALL
NO_CHARGES


@<TRIPOS>ATOM
   1 C1            -0.0885     1.4982     0.4825 C.3     
   2 O2            -0.0843     0.0699     0.4385 O.3     
   3 C3             0.6166    -0.5752     1.4077 C.ar    
   4 C4             1.2865     0.1526     2.3811 C.ar    
   5 C5             2.0002    -0.5021     3.3672 C.ar    
   6 C6             2.0491    -1.8822     3.3873 C.ar    
   7 C7             1.3803    -2.6161     2.4153 C.ar    
   8 C8             0.6582    -1.9606     1.4280 C.ar    
   9 N9             1.4302    -4.0146     2.4352 N.pl3   
  10 C10            0.3752    -4.8542     2.7445 C.2     
  11 C11            0.7946    -6.1452     2.6607 C.2     
  12 C12            2.1599    -6.1323     2.2862 C.ar    
  13 C13            2.5355    -4.7818     2.1446 C.ar    
  14 C14            3.8414    -4.4698     1.7778 C.ar    
  15 C15            4.7506    -5.4802     1.5576 C.ar    
  16 C16            4.3779    -6.8113     1.6979 C.ar    
  17 C17            3.1024    -7.1422     2.0518 C.ar    
  18 N18            4.2516    -3.0558     1.6243 N.pl3   
  19 O19            3.4951    -2.2553     1.1043 O.2     
  20 O20            5.3455    -2.6929     2.0182 O.2     
  21 C21           -0.9803    -4.4209     3.1064 C.2     
  22 O22           -1.8351    -5.2472     3.3604 O.2     
  23 O23           -1.2770    -3.1064     3.1569 O.3     
  24 H24            0.9337     1.8673     0.3995 H       
  25 H25           -0.6829     1.8855    -0.3450 H       
  26 H26           -0.5196     1.8314     1.4266 H       
  27 H27            1.2504     1.2319     2.3678 H       
  28 H28            2.5210     0.0667     4.1233 H       
  29 H29            2.6078    -2.3913     4.1587 H       
  30 H30            0.1371    -2.5286     0.6715 H       
  31 H31            0.1937    -7.0231     2.8465 H       
  32 H32            5.7632    -5.2356     1.2728 H       
  33 H33            5.1035    -7.5915     1.5211 H       
  34 H34            2.8220    -8.1797     2.1584 H       
  35 H35           -2.1826    -2.8698     3.3998 H       
@<TRIPOS>BOND
   1    1    2 1
   2    1   24 1
   3    1   25 1
   4    1   26 1
   5    2    3 1
   6    3    4 ar
   7    3    8 ar
   8    4    5 ar
   9    4   27 1
  10    5    6 ar
  11    5   28 1
  12    6    7 ar
  13    6   29 1
  14    7    8 ar
  15    7    9 1
  16    8   30 1
  17    9   10 1
  18    9   13 1
  19   10   11 2
  20   10   21 1
  21   11   12 1
  22   11   31 1
  23   12   13 ar
  24   12   17 ar
  25   13   14 ar
  26   14   15 ar
  27   14   18 1
  28   15   16 ar
  29   15   32 1
  30   16   17 ar
  31   16   33 1
  32   17   34 1
  33   18   19 2
  34   18   20 2
  35   21   22 2
  36   21   23 1
  37   23   35 1

#	End of record

