#	Name: ASD01141027
#	Creating user name:	WinNT
#	Creation time:	15. 06. 2019 19:01

#	Modifying user name:	WinNT
#	Modification time:	15. 06. 2019 19:01

#	Program:	/corina/corina34_cracker 3.40 0067  02.08.2006

@<TRIPOS>MOLECULE
ASD01141027
  42   43    0    0    0
SMALL
NO_CHARGES


@<TRIPOS>ATOM
   1 C1            -0.0168     1.3860     0.0097 C.ar    
   2 C2             0.0021    -0.0041     0.0020 C.ar    
   3 C3             1.1799     2.0934     0.0020 C.ar    
   4 O4            -1.2032     2.0522     0.0189 O.3     
   5 C5             1.2133    -0.6790    -0.0132 C.ar    
   6 C6             2.3867     1.4105    -0.0132 C.ar    
   7 O7             1.1671     3.4530     0.0090 O.3     
   8 C8            -1.7288     2.3440     1.2188 C.2     
   9 C9             2.4009     0.0284    -0.0203 C.ar    
  10 C10           -3.0406     3.0804     1.3079 C.3     
  11 O11           -1.1483     2.0152     2.2309 O.2     
  12 N12           -3.3971     3.2767     2.7194 N.3     
  13 H13           -2.9469     4.0499     0.8186 H       
  14 C14            2.4341     4.1138     0.0005 C.3     
  15 O15           -1.1655    -0.7008     0.0099 O.3     
  16 C16           -1.0702    -2.1266     0.0013 C.3     
  17 C17           -2.3682     4.0602     3.4186 C.3     
  18 C18           -2.8071     4.2914     4.8670 C.3     
  19 O19           -3.0460     3.0288     5.4948 O.3     
  20 C20           -4.0430     2.2398     4.8401 C.3     
  21 C21           -3.6166     1.9877     3.3915 C.3     
  22 C22           -4.1325     2.2628     0.6150 C.3     
  23 H23            1.2289    -1.7589    -0.0191 H       
  24 H24            3.3168     1.9594    -0.0191 H       
  25 H25            3.3425    -0.5004    -0.0314 H       
  26 H26            2.9855     3.8308    -0.8961 H       
  27 H27            2.2811     5.1930     0.0074 H       
  28 H28            3.0021     3.8218     0.8837 H       
  29 H29           -2.0713    -2.5577     0.0089 H       
  30 H30           -0.5421    -2.4501    -0.8957 H       
  31 H31           -0.5245    -2.4596     0.8841 H       
  32 H32           -1.4247     3.5145     3.4069 H       
  33 H33           -2.2402     5.0206     2.9193 H       
  34 H34           -2.0219     4.8226     5.4048 H       
  35 H35           -3.7224     4.8832     4.8798 H       
  36 H36           -4.1515     1.2871     5.3586 H       
  37 H37           -4.9942     2.7719     4.8522 H       
  38 H38           -4.3998     1.4353     2.8724 H       
  39 H39           -2.6930     1.4089     3.3794 H       
  40 H40           -3.8680     2.1171    -0.4323 H       
  41 H41           -4.2261     1.2933     1.1043 H       
  42 H42           -5.0813     2.7954     0.6794 H       
@<TRIPOS>BOND
   1    1    2 ar
   2    1    3 ar
   3    1    4 1
   4    2    5 ar
   5    2   15 1
   6    3    6 ar
   7    3    7 1
   8    4    8 1
   9    5    9 ar
  10    5   23 1
  11    6    9 ar
  12    6   24 1
  13    7   14 1
  14    8   10 1
  15    8   11 2
  16    9   25 1
  17   10   13 1
  18   10   22 1
  19   10   12 1
  20   12   17 1
  21   12   21 1
  22   14   26 1
  23   14   27 1
  24   14   28 1
  25   15   16 1
  26   16   29 1
  27   16   30 1
  28   16   31 1
  29   17   18 1
  30   17   32 1
  31   17   33 1
  32   18   19 1
  33   18   34 1
  34   18   35 1
  35   19   20 1
  36   20   21 1
  37   20   36 1
  38   20   37 1
  39   21   38 1
  40   21   39 1
  41   22   40 1
  42   22   41 1
  43   22   42 1

#	End of record

