#	Name: ASD01810369
#	Creating user name:	WinNT
#	Creation time:	15. 06. 2019 19:24

#	Modifying user name:	WinNT
#	Modification time:	15. 06. 2019 19:24

#	Program:	/corina/corina34_cracker 3.40 0067  02.08.2006

@<TRIPOS>MOLECULE
ASD01810369
  35   35    0    0    0
SMALL
NO_CHARGES


@<TRIPOS>ATOM
   1 C1             2.2738    -1.5240    -1.2924 C.ar    
   2 C2             3.2655    -1.6238    -2.2495 C.ar    
   3 N3             4.4713    -1.1391    -2.0247 N.ar    
   4 C4             4.7787    -0.5442    -0.8888 C.ar    
   5 C5             3.8381    -0.4071     0.1147 C.ar    
   6 C6             2.5597    -0.9047    -0.0851 C.ar    
   7 C7             4.1981     0.2738     1.4101 C.3     
   8 C8             6.1718    -0.0079    -0.6822 C.3     
   9 C9             2.9300     0.5045     2.2345 C.3     
  10 C10            7.0916    -0.5401    -1.7830 C.3     
  11 C11            5.1657    -0.6104     2.1993 C.3     
  12 C12            4.8640     1.6186     1.1115 C.3     
  13 C13            6.1431     1.5208    -0.7365 C.3     
  14 C14            6.6951    -0.4601     0.6826 C.3     
  15 H15            1.2872    -1.9192    -1.4840 H       
  16 H16            3.0508    -2.1047    -3.1924 H       
  17 H17            1.8044    -0.8119     0.6812 H       
  18 H18            2.4556    -0.4535     2.4472 H       
  19 H19            3.1904     0.9970     3.1714 H       
  20 H20            2.2407     1.1344     1.6723 H       
  21 H21            6.7188    -0.2180    -2.7553 H       
  22 H22            8.0993    -0.1523    -1.6335 H       
  23 H23            7.1121    -1.6293    -1.7443 H       
  24 H24            5.3726    -1.5183     1.6328 H       
  25 H25            6.0960    -0.0687     2.3699 H       
  26 H26            4.7178    -0.8740     3.1574 H       
  27 H27            4.1863     2.2368     0.5227 H       
  28 H28            5.0963     2.1249     2.0484 H       
  29 H29            5.7836     1.4520     0.5507 H       
  30 H30            5.1544     1.8762    -0.4462 H       
  31 H31            6.8894     1.9228    -0.0512 H       
  32 H32            6.3651     1.8526    -1.7508 H       
  33 H33            6.2299    -1.4076     0.9544 H       
  34 H34            7.7766    -0.5873     0.6331 H       
  35 H35            6.4518     0.2926     1.4325 H       
@<TRIPOS>BOND
   1    1    2 ar
   2    1    6 ar
   3    1   15 1
   4    2    3 ar
   5    2   16 1
   6    3    4 ar
   7    4    5 ar
   8    4    8 1
   9    5    6 ar
  10    5    7 1
  11    6   17 1
  12    7    9 1
  13    7   11 1
  14    7   12 1
  15    8   10 1
  16    8   13 1
  17    8   14 1
  18    9   18 1
  19    9   19 1
  20    9   20 1
  21   10   21 1
  22   10   22 1
  23   10   23 1
  24   11   24 1
  25   11   25 1
  26   11   26 1
  27   12   27 1
  28   12   28 1
  29   12   29 1
  30   13   30 1
  31   13   31 1
  32   13   32 1
  33   14   33 1
  34   14   34 1
  35   14   35 1

#	End of record

