#	Name: ASD03082421
#	Creating user name:	WinNT
#	Creation time:	15. 06. 2019 20:27

#	Modifying user name:	WinNT
#	Modification time:	15. 06. 2019 20:27

#	Program:	/corina/corina34_cracker 3.40 0067  02.08.2006

@<TRIPOS>MOLECULE
ASD03082421
  40   43    0    0    0
SMALL
NO_CHARGES


@<TRIPOS>ATOM
   1 C1             1.1671     3.5000     0.0203 C.ar    
   2 C2             0.0640     4.1868    -0.4701 C.ar    
   3 C3             0.0452     5.5683    -0.4535 C.ar    
   4 C4             1.1259     6.2724     0.0525 C.ar    
   5 C5             2.2334     5.5867     0.5453 C.ar    
   6 N6             1.1853     2.1009     0.0020 N.pl3   
   7 C7             2.4004     1.4188    -0.1188 C.2     
   8 C8             2.5751     0.0263    -0.0419 C.2     
   9 N9             3.5737     1.9681    -0.3293 N.2     
  10 N10            4.5311     0.9471    -0.3869 N.pl3   
  11 C11            3.8905    -0.2376    -0.2073 C.2     
  12 C12            5.9030     1.1168    -0.5963 C.ar    
  13 C13            6.8297     0.2862     0.0303 C.ar    
  14 C14            6.3787     2.1177    -1.4417 C.ar    
  15 C15            7.7398     2.2524    -1.6218 C.ar    
  16 N16            8.5864     1.4490    -1.0058 N.ar    
  17 C17            8.1751     0.4866    -0.2025 C.ar    
  18 C18            8.2665     3.3304    -2.5337 C.3     
  19 H19            8.9007    -0.1493     0.2829 H       
  20 C20            2.2542     4.2021     0.5232 C.ar    
  21 O21            1.3513     7.6138     0.1803 O.3     
  22 C22            2.4287     7.7337     1.1278 C.3     
  23 O23            3.1521     6.4974     0.9814 O.3     
  24 F24            3.2465     8.8226     0.8071 F       
  25 F25            1.9281     7.8594     2.4281 F       
  26 C26            4.5317    -1.6013    -0.1942 C.3     
  27 O27            3.5295    -2.5968     0.0220 O.3     
  28 H28           -0.7798     3.6405    -0.8651 H       
  29 H29           -0.8133     6.1003    -0.8359 H       
  30 H30            0.3552     1.6041     0.0732 H       
  31 H31            1.7961    -0.7038     0.1209 H       
  32 H32            6.4998    -0.5033     0.6893 H       
  33 H33            5.6912     2.7783    -1.9491 H       
  34 H34            8.4340     4.2419    -1.9600 H       
  35 H35            9.2064     3.0030    -2.9782 H       
  36 H36            7.5402     3.5259    -3.3226 H       
  37 H37            3.1119     3.6685     0.9053 H       
  38 H38            5.0223    -1.7813    -1.1508 H       
  39 H39            5.2693    -1.6483     0.6070 H       
  40 H40            3.8714    -3.5011     0.0424 H       
@<TRIPOS>BOND
   1    1    2 ar
   2    1    6 1
   3    1   20 ar
   4    2    3 ar
   5    2   28 1
   6    3    4 ar
   7    3   29 1
   8    4    5 ar
   9    4   21 1
  10    5   20 ar
  11    5   23 1
  12    6    7 1
  13    6   30 1
  14    7    8 1
  15    7    9 2
  16    8   11 2
  17    8   31 1
  18    9   10 1
  19   10   11 1
  20   10   12 1
  21   11   26 1
  22   12   13 ar
  23   12   14 ar
  24   13   17 ar
  25   13   32 1
  26   14   15 ar
  27   14   33 1
  28   15   16 ar
  29   15   18 1
  30   16   17 ar
  31   17   19 1
  32   18   34 1
  33   18   35 1
  34   18   36 1
  35   20   37 1
  36   21   22 1
  37   22   23 1
  38   22   24 1
  39   22   25 1
  40   26   27 1
  41   26   38 1
  42   26   39 1
  43   27   40 1

#	End of record

