#	Name: ASD00170155
#	Creating user name:	WinNT
#	Creation time:	15. 06. 2019 18:31

#	Modifying user name:	WinNT
#	Modification time:	15. 06. 2019 18:31

#	Program:	/corina/corina34_cracker 3.40 0067  02.08.2006

@<TRIPOS>MOLECULE
ASD00170155
  29   30    0    0    0
SMALL
NO_CHARGES


@<TRIPOS>ATOM
   1 C1            -0.0057     1.3208    -0.1241 C.2     
   2 C2             0.0157    -0.0026    -0.1528 C.2     
   3 C3            -1.2923    -0.5981     0.0225 C.2     
   4 C4            -2.2854     0.3406     0.1825 C.2     
   5 S5            -1.6367     1.9159     0.1280 S.3     
   6 N6            -3.6212     0.0472     0.3668 N.pl3   
   7 C7            -1.5320    -2.0408     0.0280 C.2     
   8 C8            -1.5309    -2.7860     1.3061 C.ar    
   9 O9            -1.7326    -2.6287    -1.0193 O.2     
  10 C10            1.2093     2.1985    -0.2806 C.3     
  11 C11            1.2744    -0.8078    -0.3481 C.3     
  12 C12           -1.8499    -4.1441     1.3252 C.ar    
  13 C13           -1.8464    -4.8342     2.5227 C.ar    
  14 C14           -1.5270    -4.1791     3.7011 C.ar    
  15 C15           -1.2105    -2.8324     3.6865 C.ar    
  16 C16           -1.2050    -2.1344     2.4968 C.ar    
  17 F17           -2.1554    -6.1492     2.5443 F       
  18 H18           -3.9283    -0.8712     0.3104 H       
  19 H19           -4.2530     0.7593     0.5529 H       
  20 H20            1.3570     2.4298    -1.3355 H       
  21 H21            1.0636     3.1235     0.2772 H       
  22 H22            2.0861     1.6770     0.1032 H       
  23 H23            1.7229    -1.0220     0.6220 H       
  24 H24            1.0325    -1.7440    -0.8512 H       
  25 H25            1.9784    -0.2399    -0.9564 H       
  26 H26           -2.0993    -4.6547     0.4068 H       
  27 H27           -1.5254    -4.7219     4.6348 H       
  28 H28           -0.9627    -2.3274     4.6085 H       
  29 H29           -0.9576    -1.0831     2.4877 H       
@<TRIPOS>BOND
   1    1    2 2
   2    1   10 1
   3    1    5 1
   4    2    3 1
   5    2   11 1
   6    3    4 2
   7    3    7 1
   8    4    5 1
   9    4    6 1
  10    6   18 1
  11    6   19 1
  12    7    8 1
  13    7    9 2
  14    8   12 ar
  15    8   16 ar
  16   10   20 1
  17   10   21 1
  18   10   22 1
  19   11   23 1
  20   11   24 1
  21   11   25 1
  22   12   13 ar
  23   12   26 1
  24   13   14 ar
  25   13   17 1
  26   14   15 ar
  27   14   27 1
  28   15   16 ar
  29   15   28 1
  30   16   29 1

#	End of record

