#	Name: ASD05323006
#	Creating user name:	WinNT
#	Creation time:	15. 06. 2019 20:59

#	Modifying user name:	WinNT
#	Modification time:	15. 06. 2019 20:59

#	Program:	/corina/corina34_cracker 3.40 0067  02.08.2006

@<TRIPOS>MOLECULE
ASD05323006
  68   71    0    0    0
SMALL
NO_CHARGES


@<TRIPOS>ATOM
   1 C1            -0.0187     1.5258     0.0104 C.3     
   2 C2             0.0021    -0.0041     0.0020 C.3     
   3 P3             1.6916     2.1568    -0.0025 P.3     
   4 O4             2.4039     1.7481    -1.3873 O.3     
   5 O5             1.6730     3.7605     0.1386 O.3     
   6 O6             2.4423     1.5705     1.1303 O.2     
   7 O7            -3.6873    -2.5652     0.5221 O.3     
   8 C8            -2.8362    -3.1693     1.5180 C.3     
   9 O9            -1.5540    -2.5338     1.3855 O.3     
  10 C10           -1.4413    -2.0811     0.0271 C.3     
  11 C11           -2.8179    -2.4094    -0.6232 C.3     
  12 O12           -2.1070    -0.1960    -1.2175 O.3     
  13 C13           -1.4333    -0.5336     0.0129 C.3     
  14 C14           -3.2036    -1.1135    -1.3597 C.3     
  15 C15           -3.4046    -2.9214     2.9167 C.3     
  16 C16           -2.7082    -4.6719     1.2596 C.3     
  17 C17           -2.4132    -1.8250    -3.5380 C.2     
  18 N18           -2.5679    -2.1003    -4.8450 N.am    
  19 C19           -3.7727    -1.9508    -5.4346 C.2     
  20 C20           -4.9026    -1.4836    -4.6205 C.2     
  21 C21           -4.6838    -1.2207    -3.3007 C.2     
  22 N22           -3.4345    -1.3971    -2.7784 N.am    
  23 C23           -6.2471    -1.3020    -5.2190 C.ar    
  24 C24           -6.4510    -0.3331    -6.2002 C.ar    
  25 C25           -8.7574    -0.9626    -6.3362 C.ar    
  26 C26           -7.3105    -2.1034    -4.8067 C.ar    
  27 C27           -7.7044    -0.1686    -6.7537 C.ar    
  28 C28           -8.5596    -1.9299    -5.3672 C.ar    
  29 C29          -10.1241    -0.7774    -6.9437 C.3     
  30 O30           -3.9200    -2.1977    -6.6174 O.2     
  31 O31           -1.3191    -1.9725    -3.0286 O.2     
  32 C32            3.7827     2.0069    -1.6593 C.3     
  33 C33            4.1320     1.4930    -3.0574 C.3     
  34 C34            2.8611     4.5445     0.2648 C.3     
  35 C35            2.4864     6.0236     0.3778 C.3     
  36 H36           -0.5990    -2.5276    -0.5013 H       
  37 H37           -2.7936    -3.2893    -1.2662 H       
  38 H38           -0.5459     1.8868    -0.8726 H       
  39 H39           -0.5289     1.8773     0.9072 H       
  40 H40            0.5123    -0.3556    -0.8948 H       
  41 H41            0.5293    -0.3651     0.8851 H       
  42 H42           -1.9808    -0.1403     0.8694 H       
  43 H43           -4.1028    -0.6879    -0.9142 H       
  44 H44           -4.3906    -3.3795     2.9946 H       
  45 H45           -2.7405    -3.3597     3.6617 H       
  46 H46           -3.4876    -1.8485     3.0902 H       
  47 H47           -2.2993    -4.8356     0.2626 H       
  48 H48           -2.0430    -5.1129     2.0020 H       
  49 H49           -3.6912    -5.1377     1.3302 H       
  50 H50           -1.8100    -2.4075    -5.3667 H       
  51 H51           -5.4922    -0.8754    -2.6733 H       
  52 H52           -5.6298     0.2878    -6.5264 H       
  53 H53           -7.1571    -2.8588    -4.0502 H       
  54 H54           -7.8636     0.5817    -7.5140 H       
  55 H55           -9.3854    -2.5466    -5.0447 H       
  56 H56          -10.2233    -1.4208    -7.8179 H       
  57 H57          -10.8864    -1.0406    -6.2105 H       
  58 H58          -10.2510     0.2633    -7.2422 H       
  59 H59            3.9676     3.0800    -1.6100 H       
  60 H60            4.4008     1.4974    -0.9200 H       
  61 H61            5.1837     1.6904    -3.2649 H       
  62 H62            3.9471     0.4199    -3.1068 H       
  63 H63            3.5139     2.0025    -3.7967 H       
  64 H64            3.4053     4.2382     1.1582 H       
  65 H65            3.4900     4.3950    -0.6129 H       
  66 H66            1.9422     6.3298    -0.5155 H       
  67 H67            1.8575     6.1730     1.2555 H       
  68 H68            3.3926     6.6216     0.4741 H       
@<TRIPOS>BOND
   1    1    2 1
   2    1    3 1
   3    1   38 1
   4    1   39 1
   5    2   13 1
   6    2   40 1
   7    2   41 1
   8    3    4 1
   9    3    5 1
  10    3    6 2
  11    4   32 1
  12    5   34 1
  13    7    8 1
  14    7   11 1
  15    8    9 1
  16    8   15 1
  17    8   16 1
  18    9   10 1
  19   10   11 1
  20   10   36 1
  21   10   13 1
  22   11   37 1
  23   11   14 1
  24   12   13 1
  25   12   14 1
  26   13   42 1
  27   14   22 1
  28   14   43 1
  29   15   44 1
  30   15   45 1
  31   15   46 1
  32   16   47 1
  33   16   48 1
  34   16   49 1
  35   17   18 am
  36   17   22 am
  37   17   31 2
  38   18   19 am
  39   18   50 1
  40   19   20 1
  41   19   30 2
  42   20   21 2
  43   20   23 1
  44   21   22 1
  45   21   51 1
  46   23   24 ar
  47   23   26 ar
  48   24   27 ar
  49   24   52 1
  50   25   27 ar
  51   25   28 ar
  52   25   29 1
  53   26   28 ar
  54   26   53 1
  55   27   54 1
  56   28   55 1
  57   29   56 1
  58   29   57 1
  59   29   58 1
  60   32   33 1
  61   32   59 1
  62   32   60 1
  63   33   61 1
  64   33   62 1
  65   33   63 1
  66   34   35 1
  67   34   64 1
  68   34   65 1
  69   35   66 1
  70   35   67 1
  71   35   68 1

#	End of record

