#	Name: ASD01917071
#	Creating user name:	WinNT
#	Creation time:	15. 06. 2019 20:08

#	Modifying user name:	WinNT
#	Modification time:	15. 06. 2019 20:08

#	Program:	/corina/corina34_cracker 3.40 0067  02.08.2006

@<TRIPOS>MOLECULE
ASD01917071
  43   45    0    0    0
SMALL
NO_CHARGES


@<TRIPOS>ATOM
   1 C1            -0.0662     1.4718    -0.1212 C.ar    
   2 C2            -0.0189    -0.0055    -0.0550 C.2     
   3 N3            -0.9975    -0.7941     0.3363 N.2     
   4 C4            -0.6029    -2.0704     0.2676 C.2     
   5 N5             0.6370    -2.1114    -0.1701 N.2     
   6 N6             1.0362    -0.7834    -0.3917 N.pl3   
   7 C7             2.3397    -0.3294    -0.8825 C.3     
   8 C8             2.3255    -0.2965    -2.3891 C.2     
   9 O9             3.4202     0.0913    -3.0623 O.3     
  10 O10            1.3288    -0.6192    -2.9911 O.2     
  11 C11            3.3345     0.0986    -4.5117 C.3     
  12 C12           -1.4298    -3.2491     0.6273 C.ar    
  13 C13            0.8406     2.1659    -0.9225 C.ar    
  14 C14            0.7923     3.5432    -0.9808 C.ar    
  15 C15           -0.1545     4.2373    -0.2447 C.ar    
  16 C16           -1.0574     3.5524     0.5533 C.ar    
  17 C17           -1.0218     2.1752     0.6132 C.ar    
  18 C18           -2.7355    -3.0743     1.0808 C.ar    
  19 C19           -3.5008    -4.1731     1.4143 C.ar    
  20 C20           -2.9725    -5.4485     1.2991 C.ar    
  21 C21           -1.6741    -5.6268     0.8489 C.ar    
  22 C22           -0.9043    -4.5342     0.5070 C.ar    
  23 F23           -0.1974     5.5863    -0.3048 F       
  24 C24           -2.0838     4.3138     1.3520 C.3     
  25 C25           -4.9133    -3.9853     1.9049 C.3     
  26 F26           -3.7250    -6.5215     1.6270 F       
  27 H27            2.5442     0.6702    -0.4992 H       
  28 H28            3.1153    -1.0151    -0.5414 H       
  29 H29            2.5419     0.7777    -4.8254 H       
  30 H30            4.2846     0.4310    -4.9301 H       
  31 H31            3.1130    -0.9076    -4.8676 H       
  32 H32            1.5793     1.6257    -1.4961 H       
  33 H33            1.4939     4.0814    -1.6009 H       
  34 H34           -1.7257     1.6425     1.2353 H       
  35 H35           -3.1479    -2.0803     1.1716 H       
  36 H36           -1.2659    -6.6228     0.7608 H       
  37 H37            0.1074    -4.6741     0.1559 H       
  38 H38           -2.9868     4.4417     0.7551 H       
  39 H39           -2.3234     3.7587     2.2589 H       
  40 H40           -1.6836     5.2917     1.6196 H       
  41 H41           -5.5970    -3.9945     1.0561 H       
  42 H42           -5.1712    -4.7946     2.5880 H       
  43 H43           -4.9932    -3.0311     2.4256 H       
@<TRIPOS>BOND
   1    1    2 1
   2    1   13 ar
   3    1   17 ar
   4    2    3 2
   5    2    6 1
   6    3    4 1
   7    4    5 2
   8    4   12 1
   9    5    6 1
  10    6    7 1
  11    7    8 1
  12    7   27 1
  13    7   28 1
  14    8    9 1
  15    8   10 2
  16    9   11 1
  17   11   29 1
  18   11   30 1
  19   11   31 1
  20   12   18 ar
  21   12   22 ar
  22   13   14 ar
  23   13   32 1
  24   14   15 ar
  25   14   33 1
  26   15   16 ar
  27   15   23 1
  28   16   17 ar
  29   16   24 1
  30   17   34 1
  31   18   19 ar
  32   18   35 1
  33   19   20 ar
  34   19   25 1
  35   20   21 ar
  36   20   26 1
  37   21   22 ar
  38   21   36 1
  39   22   37 1
  40   24   38 1
  41   24   39 1
  42   24   40 1
  43   25   41 1
  44   25   42 1
  45   25   43 1

#	End of record

