#	Name: ASD01916405
#	Creating user name:	WinNT
#	Creation time:	15. 06. 2019 20:07

#	Modifying user name:	WinNT
#	Modification time:	15. 06. 2019 20:07

#	Program:	/corina/corina34_cracker 3.40 0067  02.08.2006

@<TRIPOS>MOLECULE
ASD01916405
  36   38    0    0    0
SMALL
NO_CHARGES


@<TRIPOS>ATOM
   1 C1            -0.0168     1.3912     0.0097 C.ar    
   2 C2             0.0021    -0.0041     0.0020 C.ar    
   3 C3             1.2204    -0.6594    -0.0131 C.ar    
   4 C4             2.3820     0.1007    -0.0201 C.ar    
   5 C5             2.2905     1.4803    -0.0118 C.ar    
   6 N6             1.1180     2.0808     0.0026 N.ar    
   7 C7            -1.2697     2.0847     0.0194 C.1     
   8 C8            -2.2967     2.6533     0.0273 C.1     
   9 C9            -3.5846     3.3662     0.0372 C.3     
  10 C10           -3.3321     4.8752     0.0443 C.3     
  11 N11           -4.6138     5.5848     0.0541 N.pl3   
  12 N12           -5.6516     5.4179    -0.8707 N.2     
  13 C13           -6.6327     6.2162    -0.5421 C.2     
  14 C14           -6.2515     6.9257     0.6132 C.2     
  15 C15           -5.0000     6.5072     0.9590 C.2     
  16 C16           -7.0661     7.9406     1.3283 C.ar    
  17 C17           -8.3381     8.2683     0.8645 C.ar    
  18 C18           -9.0919     9.2121     1.5321 C.ar    
  19 C19           -8.5850     9.8336     2.6615 C.ar    
  20 C20           -7.3203     9.5110     3.1258 C.ar    
  21 C21           -6.5627     8.5635     2.4680 C.ar    
  22 F22           -9.3259    10.7574     3.3119 F       
  23 H23           -0.9212    -0.5644     0.0082 H       
  24 H24            1.2668    -1.7384    -0.0190 H       
  25 H25            3.3484    -0.3812    -0.0315 H       
  26 H26            3.1928     2.0739    -0.0172 H       
  27 H27           -4.1555     3.0975    -0.8515 H       
  28 H28           -4.1471     3.0878     0.9284 H       
  29 H29           -2.7611     5.1440     0.9330 H       
  30 H30           -2.7695     5.1536    -0.8469 H       
  31 H31           -7.5723     6.3146    -1.0654 H       
  32 H32           -4.4220     6.8538     1.8029 H       
  33 H33           -8.7337     7.7847    -0.0164 H       
  34 H34          -10.0781     9.4667     1.1732 H       
  35 H35           -6.9287     9.9981     4.0065 H       
  36 H36           -5.5789     8.3087     2.8336 H       
@<TRIPOS>BOND
   1    1    2 ar
   2    1    6 ar
   3    1    7 1
   4    2    3 ar
   5    2   23 1
   6    3    4 ar
   7    3   24 1
   8    4    5 ar
   9    4   25 1
  10    5    6 ar
  11    5   26 1
  12    7    8 3
  13    8    9 1
  14    9   10 1
  15    9   27 1
  16    9   28 1
  17   10   11 1
  18   10   29 1
  19   10   30 1
  20   11   12 1
  21   11   15 1
  22   12   13 2
  23   13   14 1
  24   13   31 1
  25   14   15 2
  26   14   16 1
  27   15   32 1
  28   16   17 ar
  29   16   21 ar
  30   17   18 ar
  31   17   33 1
  32   18   19 ar
  33   18   34 1
  34   19   20 ar
  35   19   22 1
  36   20   21 ar
  37   20   35 1
  38   21   36 1

#	End of record

