#	Name: ASD01911727
#	Creating user name:	WinNT
#	Creation time:	15. 06. 2019 19:58

#	Modifying user name:	WinNT
#	Modification time:	15. 06. 2019 19:58

#	Program:	/corina/corina34_cracker 3.40 0067  02.08.2006

@<TRIPOS>MOLECULE
ASD01911727
  40   42    0    0    0
SMALL
NO_CHARGES


@<TRIPOS>ATOM
   1 N1             0.0316     1.1537    -0.6874 N.am    
   2 C2             0.0021    -0.0041     0.0020 C.2     
   3 C3            -1.2508    -0.7543     0.1205 C.2     
   4 C4            -1.3862    -2.1135     0.0310 C.2     
   5 S5            -2.8471    -0.0659     0.4110 S.3     
   6 C6            -3.5481    -1.6813     0.3771 C.2     
   7 N7            -2.6014    -2.5626     0.1691 N.2     
   8 C8            -4.9363    -1.9846     0.5542 C.1     
   9 C9            -6.0745    -2.2333     0.6993 C.1     
  10 C10           -7.4627    -2.5366     0.8764 C.ar    
  11 C11           -7.9040    -3.8627     0.8289 C.ar    
  12 C12           -9.2421    -4.1468     1.0008 C.ar    
  13 C13          -10.1481    -3.1233     1.2194 C.ar    
  14 C14           -9.7192    -1.8086     1.2677 C.ar    
  15 C15           -8.3830    -1.5089     1.1033 C.ar    
  16 O16            1.0162    -0.4263     0.5261 O.2     
  17 C17           -1.1498     1.6127    -1.4305 C.3     
  18 C18           -1.4877     3.0395    -0.9868 C.3     
  19 C19           -0.2535     3.9282    -1.1572 C.3     
  20 C20            0.8809     3.4036    -0.2740 C.3     
  21 C21            1.2438     1.9837    -0.7050 C.3     
  22 F22           -9.6772    -6.1271     2.2348 F       
  23 F23          -11.0335    -5.6108     0.4704 F       
  24 C24           -9.7198    -5.5752     0.9500 C.3     
  25 F25           -8.8920    -6.3137     0.0976 F       
  26 H26           -0.5446    -2.7679    -0.1422 H       
  27 H27           -7.1984    -4.6622     0.6577 H       
  28 H28          -11.1951    -3.3520     1.3526 H       
  29 H29          -10.4320    -1.0154     1.4387 H       
  30 H30           -8.0497    -0.4823     1.1413 H       
  31 H31           -0.9356     1.6035    -2.4992 H       
  32 H32           -1.9929     0.9550    -1.2190 H       
  33 H33           -2.3025     3.4273    -1.5983 H       
  34 H34           -1.7895     3.0330     0.0605 H       
  35 H35            0.0625     3.9147    -2.2003 H       
  36 H36           -0.4983     4.9495    -0.8654 H       
  37 H37            1.7519     4.0505    -0.3781 H       
  38 H38            0.5568     3.3936     0.7667 H       
  39 H39            1.9813     1.5702    -0.0171 H       
  40 H40            1.6531     2.0018    -1.7151 H       
@<TRIPOS>BOND
   1    1    2 am
   2    1   17 1
   3    1   21 1
   4    2    3 1
   5    2   16 2
   6    3    4 2
   7    3    5 1
   8    4    7 1
   9    4   26 1
  10    5    6 1
  11    6    7 2
  12    6    8 1
  13    8    9 3
  14    9   10 1
  15   10   11 ar
  16   10   15 ar
  17   11   12 ar
  18   11   27 1
  19   12   13 ar
  20   12   24 1
  21   13   14 ar
  22   13   28 1
  23   14   15 ar
  24   14   29 1
  25   15   30 1
  26   17   18 1
  27   17   31 1
  28   17   32 1
  29   18   19 1
  30   18   33 1
  31   18   34 1
  32   19   20 1
  33   19   35 1
  34   19   36 1
  35   20   21 1
  36   20   37 1
  37   20   38 1
  38   21   39 1
  39   21   40 1
  40   22   24 1
  41   23   24 1
  42   24   25 1

#	End of record

