#	Name: ASD09116369
#	Creating user name:	WinNT
#	Creation time:	15. 06. 2019 21:21

#	Modifying user name:	WinNT
#	Modification time:	15. 06. 2019 21:21

#	Program:	/corina/corina34_cracker 3.40 0067  02.08.2006

@<TRIPOS>MOLECULE
ASD09116369
  46   50    0    0    0
SMALL
NO_CHARGES


@<TRIPOS>ATOM
   1 N1            -0.0113     1.3953    -0.0484 N.2     
   2 N2            -0.0110     0.0069     0.1621 N.pl3   
   3 C3             1.2218     1.8084     0.1212 C.2     
   4 N4             1.9951     0.7596     0.4258 N.2     
   5 C5             1.2657    -0.3352     0.4545 C.2     
   6 N6             1.7225    -1.6093     0.7332 N.pl3   
   7 C7            -1.1099    -0.8507     0.0852 C.ar    
   8 N8             1.6572     3.1285     0.0030 N.pl3   
   9 C9             3.0195     3.4261     0.0971 C.ar    
  10 C10            3.9752     2.5033    -0.3215 C.ar    
  11 C11            3.4406     4.6491     0.6044 C.ar    
  12 N12            4.7243     4.9331     0.6945 N.ar    
  13 C13            5.6536     4.0790     0.3119 C.ar    
  14 C14            5.3131     2.8443    -0.2082 C.ar    
  15 N15           -0.9301    -2.1351    -0.1845 N.ar    
  16 N16           -1.9079    -2.9646    -0.2758 N.ar    
  17 C17           -3.1625    -2.5796    -0.1053 C.ar    
  18 C18           -3.4471    -1.2465     0.2040 C.ar    
  19 C19           -2.3989    -0.3556     0.2985 C.ar    
  20 C20           -4.2947    -3.5216    -0.2634 C.ar    
  21 C21           -5.3728    -3.1514    -1.0688 C.ar    
  22 C22           -5.3324    -1.8357    -1.7967 C.3     
  23 C23           -5.6282    -0.6701    -0.8569 C.3     
  24 C24           -4.8661    -0.8271     0.4562 C.3     
  25 C25           -4.2968    -4.7553     0.3781 C.ar    
  26 C26           -5.3784    -5.6016     0.2287 C.ar    
  27 C27           -6.4541    -5.2222    -0.5535 C.ar    
  28 C28           -6.4520    -3.9986    -1.2006 C.ar    
  29 H29            2.6607    -1.7556     0.9314 H       
  30 H30            1.1049    -2.3573     0.7307 H       
  31 H31            1.0144     3.8398    -0.1444 H       
  32 H32            3.6804     1.5455    -0.7242 H       
  33 H33            2.7086     5.3745     0.9276 H       
  34 H34            6.6952     4.3499     0.4018 H       
  35 H35            6.0814     2.1516    -0.5185 H       
  36 H36           -2.5686     0.6875     0.5210 H       
  37 H37           -4.3428    -1.6998    -2.2328 H       
  38 H38           -6.0743    -1.8471    -2.5952 H       
  39 H39           -5.3291     0.2621    -1.3361 H       
  40 H40           -6.6979    -0.6389    -0.6494 H       
  41 H41           -5.3593    -1.5817     1.0689 H       
  42 H42           -4.8695     0.1240     0.9886 H       
  43 H43           -3.4571    -5.0504     0.9897 H       
  44 H44           -5.3839    -6.5616     0.7235 H       
  45 H45           -7.3005    -5.8845    -0.6600 H       
  46 H46           -7.2958    -3.7079    -1.8089 H       
@<TRIPOS>BOND
   1    1    2 1
   2    1    3 2
   3    2    7 1
   4    2    5 1
   5    3    4 1
   6    3    8 1
   7    4    5 2
   8    5    6 1
   9    6   29 1
  10    6   30 1
  11    7   15 ar
  12    7   19 ar
  13    8    9 1
  14    8   31 1
  15    9   10 ar
  16    9   11 ar
  17   10   14 ar
  18   10   32 1
  19   11   12 ar
  20   11   33 1
  21   12   13 ar
  22   13   14 ar
  23   13   34 1
  24   14   35 1
  25   15   16 ar
  26   16   17 ar
  27   17   18 ar
  28   17   20 1
  29   18   19 ar
  30   18   24 1
  31   19   36 1
  32   20   21 ar
  33   20   25 ar
  34   21   22 1
  35   21   28 ar
  36   22   23 1
  37   22   37 1
  38   22   38 1
  39   23   24 1
  40   23   39 1
  41   23   40 1
  42   24   41 1
  43   24   42 1
  44   25   26 ar
  45   25   43 1
  46   26   27 ar
  47   26   44 1
  48   27   28 ar
  49   27   45 1
  50   28   46 1

#	End of record

