#	Name: ASD01917311
#	Creating user name:	WinNT
#	Creation time:	15. 06. 2019 20:09

#	Modifying user name:	WinNT
#	Modification time:	15. 06. 2019 20:09

#	Program:	/corina/corina34_cracker 3.40 0067  02.08.2006

@<TRIPOS>MOLECULE
ASD01917311
  49   52    0    0    0
SMALL
NO_CHARGES


@<TRIPOS>ATOM
   1 C1            -0.0168     1.3889     0.0097 C.ar    
   2 C2             0.0021    -0.0041     0.0020 C.ar    
   3 C3             1.2225    -0.6606    -0.0132 C.ar    
   4 C4             2.3820     0.0991    -0.0202 C.ar    
   5 C5             2.2883     1.4815    -0.0119 C.ar    
   6 N6             1.1168     2.0790     0.0026 N.ar    
   7 C7            -1.3134     2.1059     0.0197 C.2     
   8 O8            -2.3544     1.4791     0.0212 O.2     
   9 N9            -1.3382     3.4534     0.0271 N.am    
  10 C10           -2.6202     4.1624     0.0371 C.3     
  11 C11           -3.4933     3.8196    -1.1827 C.3     
  12 C12           -4.8948     4.3953    -0.9703 C.3     
  13 C13           -4.8175     5.9007    -0.7086 C.3     
  14 C14           -3.8874     6.1540     0.4908 C.3     
  15 C15           -4.2675     5.1392     1.5937 C.3     
  16 C16           -3.4559     3.8638     1.3031 C.3     
  17 C17           -2.4671     5.7063     0.0554 C.3     
  18 N18           -3.9393     7.5413     0.9586 N.am    
  19 C19           -5.1069     8.0677     1.3782 C.2     
  20 C20           -5.1593     9.4679     1.8503 C.ar    
  21 C21           -6.3670    10.0158     2.2854 C.ar    
  22 C22           -6.4086    11.3248     2.7258 C.ar    
  23 C23           -5.2543    12.0918     2.7354 C.ar    
  24 C24           -4.0556    11.5527     2.3052 C.ar    
  25 C25           -4.0003    10.2450     1.8681 C.ar    
  26 O26           -6.1169     7.3914     1.3684 O.2     
  27 F27           -7.5763    11.8580     3.1471 F       
  28 H28           -0.9212    -0.5643     0.0082 H       
  29 H29            1.2691    -1.7396    -0.0191 H       
  30 H30            3.3489    -0.3819    -0.0317 H       
  31 H31            3.1896     2.0764    -0.0174 H       
  32 H32           -0.5072     3.9538     0.0259 H       
  33 H33           -3.0528     4.2539    -2.0802 H       
  34 H34           -3.5567     2.7371    -1.2931 H       
  35 H35           -5.4976     4.2145    -1.8602 H       
  36 H36           -5.3609     3.9042    -0.1162 H       
  37 H37           -4.4210     6.4043    -1.5902 H       
  38 H38           -5.8133     6.2836    -0.4851 H       
  39 H39           -4.0041     5.5355     2.5744 H       
  40 H40           -5.3348     4.9219     1.5512 H       
  41 H41           -4.1282     3.0257     1.1192 H       
  42 H42           -2.7975     3.6394     2.1423 H       
  43 H43           -1.7188     6.0162     0.7849 H       
  44 H44           -2.2244     6.0868    -0.9368 H       
  45 H45           -3.1334     8.0810     0.9664 H       
  46 H46           -7.2666     9.4184     2.2776 H       
  47 H47           -5.2911    13.1147     3.0801 H       
  48 H48           -3.1596    12.1557     2.3148 H       
  49 H49           -3.0623     9.8248     1.5365 H       
@<TRIPOS>BOND
   1    1    2 ar
   2    1    6 ar
   3    1    7 1
   4    2    3 ar
   5    2   28 1
   6    3    4 ar
   7    3   29 1
   8    4    5 ar
   9    4   30 1
  10    5    6 ar
  11    5   31 1
  12    7    8 2
  13    7    9 am
  14    9   10 1
  15    9   32 1
  16   10   11 1
  17   10   16 1
  18   10   17 1
  19   11   12 1
  20   11   33 1
  21   11   34 1
  22   12   13 1
  23   12   35 1
  24   12   36 1
  25   13   14 1
  26   13   37 1
  27   13   38 1
  28   14   15 1
  29   14   17 1
  30   14   18 1
  31   15   16 1
  32   15   39 1
  33   15   40 1
  34   16   41 1
  35   16   42 1
  36   17   43 1
  37   17   44 1
  38   18   19 am
  39   18   45 1
  40   19   20 1
  41   19   26 2
  42   20   21 ar
  43   20   25 ar
  44   21   22 ar
  45   21   46 1
  46   22   23 ar
  47   22   27 1
  48   23   24 ar
  49   23   47 1
  50   24   25 ar
  51   24   48 1
  52   25   49 1

#	End of record

