#	Name: ASD01240014
#	Creating user name:	WinNT
#	Creation time:	15. 06. 2019 19:15

#	Modifying user name:	WinNT
#	Modification time:	15. 06. 2019 19:15

#	Program:	/corina/corina34_cracker 3.40 0067  02.08.2006

@<TRIPOS>MOLECULE
ASD01240014
  24   25    0    0    0
SMALL
NO_CHARGES


@<TRIPOS>ATOM
   1 C1            -0.0191     1.5550     0.0106 C.3     
   2 C2             0.0021    -0.0041     0.0020 C.3     
   3 C3             0.5255    -0.3955     1.4029 C.3     
   4 C4             0.7712     0.9639     2.1259 C.3     
   5 C5             2.0084     1.5744     1.3993 C.3     
   6 C6             1.4850     1.9659    -0.0016 C.3     
   7 C7            -0.3833     1.8320     1.5119 C.3     
   8 C8            -1.3875    -0.5472    -0.2103 C.2     
   9 O9            -2.3491     0.1164     0.0978 O.2     
  10 O10           -1.5570    -1.7681    -0.7416 O.3     
  11 N11            0.9111    -0.4982    -1.0408 N.3     
  12 H12           -0.6481     2.0272    -0.7441 H       
  13 H13           -0.2223    -0.9808     1.9380 H       
  14 H14            1.4573    -0.9546     1.3178 H       
  15 H15            0.8305     0.9213     3.2135 H       
  16 H16            2.3650     2.4562     1.9318 H       
  17 H17            2.8033     0.8334     1.3146 H       
  18 H18            2.0226     1.4173    -0.7750 H       
  19 H19            1.5843     3.0401    -0.1578 H       
  20 H20           -0.2830     2.8864     1.7691 H       
  21 H21           -1.3684     1.4445     1.7717 H       
  22 H22           -2.4671    -2.0735    -0.8587 H       
  23 H23            0.9317    -1.5069    -1.0543 H       
  24 H24            0.6582    -0.1295    -1.9453 H       
@<TRIPOS>BOND
   1    1    2 1
   2    1    6 1
   3    1    7 1
   4    1   12 1
   5    2    3 1
   6    2    8 1
   7    2   11 1
   8    3    4 1
   9    3   13 1
  10    3   14 1
  11    4    5 1
  12    4    7 1
  13    4   15 1
  14    5    6 1
  15    5   16 1
  16    5   17 1
  17    6   18 1
  18    6   19 1
  19    7   20 1
  20    7   21 1
  21    8    9 2
  22    8   10 1
  23   10   22 1
  24   11   23 1
  25   11   24 1

#	End of record

