#	Name: ASD03540354
#	Creating user name:	WinNT
#	Creation time:	15. 06. 2019 20:43

#	Modifying user name:	WinNT
#	Modification time:	15. 06. 2019 20:43

#	Program:	/corina/corina34_cracker 3.40 0067  02.08.2006

@<TRIPOS>MOLECULE
ASD03540354
  52   55    0    0    0
SMALL
NO_CHARGES


@<TRIPOS>ATOM
   1 C1            -0.0161     1.3365     0.0094 C.2     
   2 N2             0.0021    -0.0041     0.0020 N.am    
   3 C3             1.1934    -0.7075    -0.0132 C.2     
   4 C4             2.3927    -0.0052    -0.0209 C.2     
   5 C5             2.3194     1.4731    -0.0123 C.2     
   6 N6             1.1112     2.0659     0.0025 N.am    
   7 C7             3.5132    -0.8389    -0.0357 C.2     
   8 C8             3.2261    -2.1513    -0.0396 C.2     
   9 S9             1.4880    -2.3901    -0.0245 S.3     
  10 C10            4.2202    -3.2270    -0.0552 C.2     
  11 O11            5.4074    -2.9586    -0.0657 O.2     
  12 N12            3.8203    -4.5141    -0.0579 N.am    
  13 C13            4.8145    -5.5900    -0.0735 C.3     
  14 C14            3.1236    -8.7720    -1.2224 C.ar    
  15 C15            3.7702    -7.5431    -1.2624 C.ar    
  16 C16            4.1120    -6.9232    -0.0734 C.ar    
  17 C17            3.7934    -7.5578     1.1196 C.ar    
  18 C18            3.1501    -8.7787     1.0843 C.ar    
  19 N19            2.8368    -9.3452    -0.0656 N.ar    
  20 O20            2.7781    -9.3875    -2.3811 O.3     
  21 C21            2.1156   -10.6490    -2.2732 C.3     
  22 O22            3.3359     2.1421    -0.0183 O.2     
  23 O23           -1.0880     1.9102     0.0175 O.2     
  24 C24            1.0247     3.5284     0.0113 C.3     
  25 C25            2.1910     4.3219     2.0852 C.ar    
  26 C26            1.0086     4.0221     1.4350 C.ar    
  27 C27           -0.1922     4.1819     2.1090 C.ar    
  28 C28           -0.1587     4.6393     3.4177 C.ar    
  29 C29            1.0618     4.9186     4.0024 C.ar    
  30 N30            2.1849     4.7552     3.3305 N.ar    
  31 N31            1.1093     5.4073     5.3987 N.pl3   
  32 O32            0.0763     5.5612     6.0255 O.2     
  33 O33            2.1813     5.6557     5.9209 O.2     
  34 C34           -1.2652    -0.7390     0.0107 C.3     
  35 H35            4.5248    -0.4605    -0.0436 H       
  36 H36            2.8742    -4.7281    -0.0495 H       
  37 H37            5.4295    -5.5035    -0.9692 H       
  38 H38            5.4474    -5.5127     0.8106 H       
  39 H39            4.0032    -7.0779    -2.2088 H       
  40 H40            4.0464    -7.1013     2.0651 H       
  41 H41            2.9003    -9.2766     2.0096 H       
  42 H42            2.7600   -11.3540    -1.7479 H       
  43 H43            1.1853   -10.5246    -1.7189 H       
  44 H44            1.8962   -11.0307    -3.2703 H       
  45 H45            1.8867     3.9464    -0.5086 H       
  46 H46            0.1099     3.8413    -0.4921 H       
  47 H47            3.1311     4.1958     1.5686 H       
  48 H48           -1.1315     3.9559     1.6262 H       
  49 H49           -1.0750     4.7758     3.9729 H       
  50 H50           -2.0950    -0.0323     0.0228 H       
  51 H51           -1.3306    -1.3610    -0.8820 H       
  52 H52           -1.3129    -1.3705     0.8978 H       
@<TRIPOS>BOND
   1    1    2 am
   2    1    6 am
   3    1   23 2
   4    2    3 1
   5    2   34 1
   6    3    4 2
   7    3    9 1
   8    4    5 1
   9    4    7 1
  10    5    6 am
  11    5   22 2
  12    6   24 1
  13    7    8 2
  14    7   35 1
  15    8    9 1
  16    8   10 1
  17   10   11 2
  18   10   12 am
  19   12   13 1
  20   12   36 1
  21   13   16 1
  22   13   37 1
  23   13   38 1
  24   14   15 ar
  25   14   19 ar
  26   14   20 1
  27   15   16 ar
  28   15   39 1
  29   16   17 ar
  30   17   18 ar
  31   17   40 1
  32   18   19 ar
  33   18   41 1
  34   20   21 1
  35   21   42 1
  36   21   43 1
  37   21   44 1
  38   24   26 1
  39   24   45 1
  40   24   46 1
  41   25   26 ar
  42   25   30 ar
  43   25   47 1
  44   26   27 ar
  45   27   28 ar
  46   27   48 1
  47   28   29 ar
  48   28   49 1
  49   29   30 ar
  50   29   31 1
  51   31   32 2
  52   31   33 2
  53   34   50 1
  54   34   51 1
  55   34   52 1

#	End of record

