#	Name: ASD06170232
#	Creating user name:	WinNT
#	Creation time:	15. 06. 2019 21:05

#	Modifying user name:	WinNT
#	Modification time:	15. 06. 2019 21:05

#	Program:	/corina/corina34_cracker 3.40 0067  02.08.2006

@<TRIPOS>MOLECULE
ASD06170232
  63   67    0    0    0
SMALL
NO_CHARGES


@<TRIPOS>ATOM
   1 C1             1.8353     1.0878    -1.4221 C.2     
   2 N2             1.4609    -0.1860    -1.2454 N.am    
   3 C3             0.3187    -0.2300    -0.3201 C.3     
   4 C4             0.0705     1.2499     0.0306 C.3     
   5 N5             1.0992     1.9706    -0.7343 N.am    
   6 C6             1.2736     3.3070    -0.7420 C.2     
   7 O7             2.2138     3.7938    -1.3390 O.2     
   8 N8             0.4055     4.1037    -0.0876 N.am    
   9 O9             2.7623     1.4129    -2.1379 O.2     
  10 C10            0.6621     5.4765     0.0243 C.ar    
  11 C11           -0.3912     6.3816     0.0304 C.ar    
  12 C12           -0.1371     7.7358     0.1408 C.ar    
  13 C13            1.1721     8.1902     0.2457 C.ar    
  14 C14            2.2227     7.2856     0.2395 C.ar    
  15 C15            1.9688     5.9316     0.1349 C.ar    
  16 F16           -1.1609     8.6172     0.1464 F       
  17 O17            1.4227     9.5225     0.3539 O.3     
  18 N18            0.9786    11.2594     4.0683 N.ar    
  19 C19            0.8513     9.9608     3.9274 C.ar    
  20 C20            0.9938     9.3405     2.6927 C.ar    
  21 C21            1.2778    10.1006     1.5717 C.ar    
  22 C22            1.4126    11.4977     1.7353 C.ar    
  23 C23            1.6995    12.3336     0.6458 C.ar    
  24 C24            1.8223    13.6791     0.8406 C.ar    
  25 C25            1.6650    14.2337     2.1188 C.ar    
  26 C26            1.3860    13.4430     3.1961 C.ar    
  27 C27            1.2527    12.0549     3.0274 C.ar    
  28 O28            1.7924    15.5760     2.2874 O.3     
  29 C29            1.6213    16.0825     3.6127 C.3     
  30 O30            2.1004    14.4895    -0.2153 O.3     
  31 C31            2.2496    13.8641    -1.4915 C.3     
  32 C32            2.0894    -1.3505    -1.8740 C.3     
  33 C33            3.1987    -1.8606    -0.9906 C.ar    
  34 C34            2.9315    -2.8149    -0.0269 C.ar    
  35 C35            3.9491    -3.2827     0.7834 C.ar    
  36 C36            5.2339    -2.7966     0.6297 C.ar    
  37 C37            5.5013    -1.8429    -0.3347 C.ar    
  38 C38            4.4846    -1.3783    -1.1479 C.ar    
  39 H39           -0.5550    -0.6586    -0.8110 H       
  40 H40            0.5730    -0.7979     0.5748 H       
  41 H41           -0.9265     1.5562    -0.2861 H       
  42 H42            0.2016     1.4169     1.0997 H       
  43 H43           -0.3970     3.7266     0.3058 H       
  44 H44           -1.4082     6.0276    -0.0515 H       
  45 H45            3.2399     7.6392     0.3209 H       
  46 H46            2.7875     5.2273     0.1350 H       
  47 H47            0.6301     9.3577     4.7955 H       
  48 H48            0.8837     8.2695     2.6080 H       
  49 H49            1.8229    11.9147    -0.3420 H       
  50 H50            1.2677    13.8835     4.1750 H       
  51 H51            2.3635    15.6327     4.2722 H       
  52 H52            1.7486    17.1650     3.6072 H       
  53 H53            0.6213    15.8361     3.9695 H       
  54 H54            1.3259    13.3482    -1.7535 H       
  55 H55            2.4688    14.6216    -2.2439 H       
  56 H56            3.0681    13.1453    -1.4504 H       
  57 H57            1.3451    -2.1348    -2.0120 H       
  58 H58            2.4989    -1.0638    -2.8426 H       
  59 H59            1.9276    -3.1947     0.0932 H       
  60 H60            3.7401    -4.0278     1.5368 H       
  61 H61            6.0288    -3.1616     1.2632 H       
  62 H62            6.5051    -1.4629    -0.4546 H       
  63 H63            4.6942    -0.6359    -1.9038 H       
@<TRIPOS>BOND
   1    1    2 am
   2    1    5 am
   3    1    9 2
   4    2    3 1
   5    2   32 1
   6    3    4 1
   7    3   39 1
   8    3   40 1
   9    4    5 1
  10    4   41 1
  11    4   42 1
  12    5    6 am
  13    6    7 2
  14    6    8 am
  15    8   10 1
  16    8   43 1
  17   10   11 ar
  18   10   15 ar
  19   11   12 ar
  20   11   44 1
  21   12   13 ar
  22   12   16 1
  23   13   14 ar
  24   13   17 1
  25   14   15 ar
  26   14   45 1
  27   15   46 1
  28   17   21 1
  29   18   19 ar
  30   18   27 ar
  31   19   20 ar
  32   19   47 1
  33   20   21 ar
  34   20   48 1
  35   21   22 ar
  36   22   23 ar
  37   22   27 ar
  38   23   24 ar
  39   23   49 1
  40   24   25 ar
  41   24   30 1
  42   25   26 ar
  43   25   28 1
  44   26   27 ar
  45   26   50 1
  46   28   29 1
  47   29   51 1
  48   29   52 1
  49   29   53 1
  50   30   31 1
  51   31   54 1
  52   31   55 1
  53   31   56 1
  54   32   33 1
  55   32   57 1
  56   32   58 1
  57   33   34 ar
  58   33   38 ar
  59   34   35 ar
  60   34   59 1
  61   35   36 ar
  62   35   60 1
  63   36   37 ar
  64   36   61 1
  65   37   38 ar
  66   37   62 1
  67   38   63 1

#	End of record

