#	Name: ASD03331777
#	Creating user name:	WinNT
#	Creation time:	15. 06. 2019 20:39

#	Modifying user name:	WinNT
#	Modification time:	15. 06. 2019 20:39

#	Program:	/corina/corina34_cracker 3.40 0067  02.08.2006

@<TRIPOS>MOLECULE
ASD03331777
  51   54    0    0    0
SMALL
NO_CHARGES


@<TRIPOS>ATOM
   1 C1            -3.1364    -4.2540    -1.3139 C.ar    
   2 C2            -1.9801    -3.7947    -0.7144 C.ar    
   3 C3            -0.7419    -4.1606    -1.2255 C.ar    
   4 C4            -0.6698    -4.9877    -2.3385 C.ar    
   5 C5            -1.8292    -5.4443    -2.9343 C.ar    
   6 C6            -3.0618    -5.0782    -2.4230 C.ar    
   7 Cl7           -4.5172    -5.6542    -3.1739 Cl      
   8 N8             0.4316    -3.6961    -0.6200 N.am    
   9 C9             1.5371    -4.4671    -0.6129 C.2     
  10 N10            2.6944    -3.9813    -0.1220 N.am    
  11 O11            1.4902    -5.6009    -1.0495 O.2     
  12 C12            3.8140    -4.8141    -0.0164 C.ar    
  13 C13            3.6528    -6.1597     0.2791 C.ar    
  14 C14            4.7659    -6.9825     0.3831 C.ar    
  15 C15            6.0373    -6.4560     0.1909 C.ar    
  16 C16            6.1941    -5.1152    -0.1033 C.ar    
  17 C17            5.0878    -4.2951    -0.2131 C.ar    
  18 N18            4.6080    -8.3388     0.6811 N.pl3   
  19 C19            5.5130    -8.9756     1.5236 C.ar    
  20 N20            6.5010    -8.2817     2.0691 N.ar    
  21 C21            7.3836    -8.8507     2.8768 C.ar    
  22 C22            7.2989   -10.2046     3.1788 C.ar    
  23 C23            6.2775   -10.9594     2.6250 C.ar    
  24 C24            5.3682   -10.3323     1.7891 C.ar    
  25 N25            8.4052    -8.0858     3.4274 N.3     
  26 C26            8.3143    -6.6833     2.9816 C.3     
  27 C27            8.2245    -5.8059     4.2479 C.3     
  28 C28            8.8406    -6.7125     5.3457 C.3     
  29 C29            8.3514    -8.1146     4.9046 C.3     
  30 H30           -4.0996    -3.9733    -0.9141 H       
  31 H31           -2.0388    -3.1511     0.1510 H       
  32 H32            0.2919    -5.2735    -2.7381 H       
  33 H33           -1.7737    -6.0874    -3.8002 H       
  34 H34            0.4492    -2.8193    -0.2055 H       
  35 H35            2.7513    -3.0543     0.1581 H       
  36 H36            2.6635    -6.5663     0.4283 H       
  37 H37            6.9039    -7.0955     0.2719 H       
  38 H38            7.1834    -4.7083    -0.2523 H       
  39 H39            5.2137    -3.2474    -0.4432 H       
  40 H40            3.8673    -8.8360     0.3004 H       
  41 H41            8.0213   -10.6633     3.8376 H       
  42 H42            6.1898   -12.0134     2.8436 H       
  43 H43            4.5608   -10.8931     1.3419 H       
  44 H44            9.2030    -6.4180     2.4089 H       
  45 H45            7.4221    -6.5454     2.3708 H       
  46 H46            8.8098    -4.8944     4.1275 H       
  47 H47            7.1860    -5.5704     4.4806 H       
  48 H48            9.9291    -6.6568     5.3325 H       
  49 H49            8.4499    -6.4544     6.3300 H       
  50 H50            7.3295    -8.2840     5.2439 H       
  51 H51            9.0143    -8.8875     5.2935 H       
@<TRIPOS>BOND
   1    1    2 ar
   2    1    6 ar
   3    1   30 1
   4    2    3 ar
   5    2   31 1
   6    3    4 ar
   7    3    8 1
   8    4    5 ar
   9    4   32 1
  10    5    6 ar
  11    5   33 1
  12    6    7 1
  13    8    9 am
  14    8   34 1
  15    9   10 am
  16    9   11 2
  17   10   12 1
  18   10   35 1
  19   12   13 ar
  20   12   17 ar
  21   13   14 ar
  22   13   36 1
  23   14   15 ar
  24   14   18 1
  25   15   16 ar
  26   15   37 1
  27   16   17 ar
  28   16   38 1
  29   17   39 1
  30   18   19 1
  31   18   40 1
  32   19   20 ar
  33   19   24 ar
  34   20   21 ar
  35   21   22 ar
  36   21   25 1
  37   22   23 ar
  38   22   41 1
  39   23   24 ar
  40   23   42 1
  41   24   43 1
  42   25   26 1
  43   25   29 1
  44   26   27 1
  45   26   44 1
  46   26   45 1
  47   27   28 1
  48   27   46 1
  49   27   47 1
  50   28   29 1
  51   28   48 1
  52   28   49 1
  53   29   50 1
  54   29   51 1

#	End of record

