#	Name: ASD02039392
#	Creating user name:	WinNT
#	Creation time:	15. 06. 2019 20:18

#	Modifying user name:	WinNT
#	Modification time:	15. 06. 2019 20:18

#	Program:	/corina/corina34_cracker 3.40 0067  02.08.2006

@<TRIPOS>MOLECULE
ASD02039392
  48   50    0    0    0
SMALL
NO_CHARGES


@<TRIPOS>ATOM
   1 C1            -0.1214     1.5193    -0.1783 C.ar    
   2 C2            -0.1113     0.1412    -0.0695 C.ar    
   3 C3            -1.2933    -0.5712    -0.1578 C.ar    
   4 C4            -2.5029     1.4811    -0.4537 C.ar    
   5 C5            -1.3138     2.1907    -0.3701 C.ar    
   6 N6            -3.7150     2.1604    -0.6490 N.pl3   
   7 C7             1.1693     2.2910    -0.0813 C.3     
   8 N8             1.8246     2.3133    -1.3914 N.am    
   9 C9             1.4057     3.2863    -2.4034 C.3     
  10 C10            2.8127     1.4388    -1.6657 C.2     
  11 C11            3.1754     0.4046    -0.6811 C.2     
  12 C12            4.1868    -0.5031    -0.8005 C.2     
  13 N13            2.5678     0.1851     0.5128 N.2     
  14 C14            3.1597    -0.8087     1.1099 C.2     
  15 N15            4.1699    -1.2600     0.3218 N.pl3   
  16 O16            3.4050     1.5034    -2.7260 O.2     
  17 C17            5.0778    -2.3675     0.6306 C.3     
  18 C18           -4.7534     2.2259     0.2239 C.2     
  19 C19           -2.4895     0.0941    -0.3550 C.ar    
  20 C20            2.5621     4.2429    -2.7007 C.3     
  21 C21            1.0100     2.5505    -3.6853 C.3     
  22 C22           -4.0723     2.8883    -1.7542 C.2     
  23 C23           -5.3100     3.3660    -1.5234 C.2     
  24 N24           -5.7009     2.9472    -0.3107 N.2     
  25 C25           -4.8034     1.5749     1.5821 C.3     
  26 F26           -3.6444    -0.6015    -0.4414 F       
  27 H27            0.8218    -0.3803     0.0846 H       
  28 H28           -1.2822    -1.6478    -0.0731 H       
  29 H29           -1.3210     3.2680    -0.4465 H       
  30 H30            0.9592     3.3120     0.2373 H       
  31 H31            1.8256     1.8116     0.6450 H       
  32 H32            0.5520     3.8528    -2.0314 H       
  33 H33            4.8699    -0.5996    -1.6315 H       
  34 H34            2.8926    -1.2080     2.0772 H       
  35 H35            4.6556    -3.2992     0.2540 H       
  36 H36            6.0433    -2.1887     0.1572 H       
  37 H37            5.2101    -2.4387     1.7102 H       
  38 H38            3.3830     3.6898    -3.1572 H       
  39 H39            2.2234     5.0209    -3.3849 H       
  40 H40            2.9039     4.6995    -1.7718 H       
  41 H41            0.2519     1.8019    -3.4553 H       
  42 H42            0.6091     3.2644    -4.4049 H       
  43 H43            1.8871     2.0613    -4.1089 H       
  44 H44           -3.4756     3.0480    -2.6402 H       
  45 H45           -5.8869     3.9823    -2.1970 H       
  46 H46           -4.4090     2.2631     2.3296 H       
  47 H47           -5.8355     1.3246     1.8273 H       
  48 H48           -4.2018     0.6660     1.5717 H       
@<TRIPOS>BOND
   1    1    2 ar
   2    1    7 1
   3    1    5 ar
   4    2    3 ar
   5    2   27 1
   6    3   19 ar
   7    3   28 1
   8    4    5 ar
   9    4    6 1
  10    4   19 ar
  11    5   29 1
  12    6   18 1
  13    6   22 1
  14    7    8 1
  15    7   30 1
  16    7   31 1
  17    8    9 1
  18    8   10 am
  19    9   20 1
  20    9   21 1
  21    9   32 1
  22   10   11 1
  23   10   16 2
  24   11   12 2
  25   11   13 1
  26   12   15 1
  27   12   33 1
  28   13   14 2
  29   14   15 1
  30   14   34 1
  31   15   17 1
  32   17   35 1
  33   17   36 1
  34   17   37 1
  35   18   25 1
  36   18   24 2
  37   19   26 1
  38   20   38 1
  39   20   39 1
  40   20   40 1
  41   21   41 1
  42   21   42 1
  43   21   43 1
  44   22   23 2
  45   22   44 1
  46   23   24 1
  47   23   45 1
  48   25   46 1
  49   25   47 1
  50   25   48 1

#	End of record

