#	Name: ASD01916358
#	Creating user name:	WinNT
#	Creation time:	15. 06. 2019 20:07

#	Modifying user name:	WinNT
#	Modification time:	15. 06. 2019 20:07

#	Program:	/corina/corina34_cracker 3.40 0067  02.08.2006

@<TRIPOS>MOLECULE
ASD01916358
  34   36    0    0    0
SMALL
NO_CHARGES


@<TRIPOS>ATOM
   1 C1             0.1484     1.2939    -0.3725 C.3     
   2 C2            -0.0249    -0.1810     0.0128 C.3     
   3 C3             0.6171    -0.4303     1.3756 C.3     
   4 C4             2.0511     0.0181     1.3898 C.ar    
   5 C5             2.5315     0.9679     0.4812 C.ar    
   6 C6             1.6340     1.5522    -0.5250 C.2     
   7 N7             2.8907    -0.4878     2.2765 N.ar    
   8 C8             4.1601    -0.1034     2.3073 C.ar    
   9 N9             4.6491     0.7968     1.4633 N.ar    
  10 C10            3.8780     1.3503     0.5454 C.ar    
  11 N11            5.0010    -0.6582     3.2496 N.pl3   
  12 O12            2.0661     2.2161    -1.4437 O.2     
  13 C13           -1.5157    -0.5182     0.0821 C.3     
  14 C14            6.3110    -0.1879     3.3809 C.ar    
  15 C15            6.5940     1.1535     3.1600 C.ar    
  16 C16            7.8904     1.6152     3.2907 C.ar    
  17 C17            8.9050     0.7417     3.6411 C.ar    
  18 C18            8.6254    -0.5945     3.8616 C.ar    
  19 C19            7.3313    -1.0605     3.7382 C.ar    
  20 Cl20           8.2462     3.2917     3.0143 Cl      
  21 H21           -0.3608     1.4926    -1.3156 H       
  22 H22           -0.2598     1.9319     0.4114 H       
  23 H23            0.4556    -0.8110    -0.7358 H       
  24 H24            0.0634     0.1187     2.1373 H       
  25 H25            0.5735    -1.4957     1.6017 H       
  26 H26            4.2766     2.0824    -0.1413 H       
  27 H27            4.6834    -1.3747     3.8212 H       
  28 H28           -1.9739    -0.3406    -0.8908 H       
  29 H29           -1.6388    -1.5661     0.3559 H       
  30 H30           -1.9963     0.1118     0.8306 H       
  31 H31            5.8023     1.8351     2.8862 H       
  32 H32            9.9173     1.1043     3.7423 H       
  33 H33            9.4194    -1.2738     4.1346 H       
  34 H34            7.1140    -2.1042     3.9109 H       
@<TRIPOS>BOND
   1    1    2 1
   2    1    6 1
   3    1   21 1
   4    1   22 1
   5    2    3 1
   6    2   13 1
   7    2   23 1
   8    3    4 1
   9    3   24 1
  10    3   25 1
  11    4    5 ar
  12    4    7 ar
  13    5    6 1
  14    5   10 ar
  15    6   12 2
  16    7    8 ar
  17    8    9 ar
  18    8   11 1
  19    9   10 ar
  20   10   26 1
  21   11   14 1
  22   11   27 1
  23   13   28 1
  24   13   29 1
  25   13   30 1
  26   14   15 ar
  27   14   19 ar
  28   15   16 ar
  29   15   31 1
  30   16   17 ar
  31   16   20 1
  32   17   18 ar
  33   17   32 1
  34   18   19 ar
  35   18   33 1
  36   19   34 1

#	End of record

