#	Name: ASD02390008
#	Creating user name:	WinNT
#	Creation time:	15. 06. 2019 20:20

#	Modifying user name:	WinNT
#	Modification time:	15. 06. 2019 20:20

#	Program:	/corina/corina34_cracker 3.40 0067  02.08.2006

@<TRIPOS>MOLECULE
ASD02390008
  33   35    0    0    0
SMALL
NO_CHARGES


@<TRIPOS>ATOM
   1 C1            -0.0165     1.3641     0.0095 C.2     
   2 C2             0.0021    -0.0041     0.0020 C.2     
   3 C3            -1.3234    -0.5969     0.0118 C.2     
   4 C4            -2.2937     0.3238     0.0266 C.2     
   5 S5            -1.6169     1.9440     0.0353 S.3     
   6 C6             1.2359    -0.7920    -0.0148 C.2     
   7 O7             1.7926    -1.1483    -1.1906 O.3     
   8 O8             1.7589    -1.1253     1.0317 O.2     
   9 N9             1.1116     2.1667     0.0031 N.am    
  10 C10            0.9841     3.5084     0.0115 C.2     
  11 O11           -0.1226     4.0145     0.0248 O.2     
  12 C12            2.1785     4.3582     0.0047 C.2     
  13 C13            2.1920     5.7240     0.0119 C.2     
  14 C14            3.5401     6.1143     0.0011 C.2     
  15 C15            4.2812     4.9844    -0.0121 C.2     
  16 O16            3.4574     3.9283    -0.0040 O.3     
  17 C17           -1.5869    -2.0943     0.0056 C.3     
  18 C18           -3.0317    -2.3422     0.4448 C.3     
  19 C19           -3.9680    -1.4559    -0.3821 C.3     
  20 C20           -3.7762     0.0033     0.0401 C.3     
  21 H21            2.6069    -1.6683    -1.1511 H       
  22 H22            1.9937     1.7634    -0.0075 H       
  23 H23            1.3318     6.3771     0.0233 H       
  24 H24            3.9147     7.1273     0.0024 H       
  25 H25            5.3603     4.9401    -0.0229 H       
  26 H26           -1.4381    -2.4873    -1.0001 H       
  27 H27           -0.9048    -2.5882     0.6977 H       
  28 H28           -3.2864    -3.3899     0.2847 H       
  29 H29           -3.1382    -2.0980     1.5017 H       
  30 H30           -3.7313    -1.5634    -1.4407 H       
  31 H31           -5.0017    -1.7535    -0.2062 H       
  32 H32           -4.1724     0.1480     1.0452 H       
  33 H33           -4.2978     0.6575    -0.6584 H       
@<TRIPOS>BOND
   1    1    2 2
   2    1    9 1
   3    1    5 1
   4    2    3 1
   5    2    6 1
   6    3    4 2
   7    3   17 1
   8    4    5 1
   9    4   20 1
  10    6    7 1
  11    6    8 2
  12    7   21 1
  13    9   10 am
  14    9   22 1
  15   10   11 2
  16   10   12 1
  17   12   13 2
  18   12   16 1
  19   13   14 1
  20   13   23 1
  21   14   15 2
  22   14   24 1
  23   15   16 1
  24   15   25 1
  25   17   18 1
  26   17   26 1
  27   17   27 1
  28   18   19 1
  29   18   28 1
  30   18   29 1
  31   19   20 1
  32   19   30 1
  33   19   31 1
  34   20   32 1
  35   20   33 1

#	End of record

