#	Name: ASD01190118
#	Creating user name:	WinNT
#	Creation time:	15. 06. 2019 19:07

#	Modifying user name:	WinNT
#	Modification time:	15. 06. 2019 19:07

#	Program:	/corina/corina34_cracker 3.40 0067  02.08.2006

@<TRIPOS>MOLECULE
ASD01190118
  50   54    0    0    0
SMALL
NO_CHARGES


@<TRIPOS>ATOM
   1 C1             2.7967     2.6649    -0.9248 C.2     
   2 N2             3.8175     1.8159    -1.1480 N.am    
   3 C3             3.4637     0.5634    -0.6518 C.ar    
   4 C4             2.1800     0.6895    -0.1160 C.ar    
   5 N5             1.7940     2.0156    -0.3038 N.am    
   6 C6             4.1128    -0.6606    -0.6079 C.ar    
   7 C7             3.4870    -1.7506    -0.0345 C.ar    
   8 C8             2.2148    -1.6258     0.4960 C.ar    
   9 C9             1.5601    -0.4099     0.4573 C.ar    
  10 O10            2.7843     3.8421    -1.2329 O.2     
  11 C11            4.1925    -3.0815     0.0132 C.3     
  12 C12            4.2882    -3.6589    -1.4004 C.3     
  13 N13            7.7873    -2.9159     0.7922 N.pl3   
  14 C14            6.7330    -3.2370    -0.0188 C.2     
  15 C15            5.5785    -2.8954     0.5748 C.2     
  16 C16            5.9215    -2.3074     1.8719 C.ar    
  17 C17            5.1741    -1.7739     2.9238 C.ar    
  18 C18            5.8110    -1.2908     4.0317 C.ar    
  19 C19            7.1961    -1.3259     4.1204 C.ar    
  20 C20            7.9528    -1.8474     3.0943 C.ar    
  21 C21            7.3251    -2.3453     1.9569 C.ar    
  22 C22            9.1975    -3.1500     0.4716 C.3     
  23 O23            3.4577    -3.9805     0.8463 O.3     
  24 F24            5.0075    -2.7788    -2.2159 F       
  25 F25            4.9431    -4.8944    -1.3560 F       
  26 F26            3.0015    -3.8317    -1.9217 F       
  27 C27            0.5708     2.5775     0.0878 C.ar    
  28 C28            0.5359     3.5358     1.0917 C.ar    
  29 C29           -0.6702     4.0882     1.4762 C.ar    
  30 C30           -1.8440     3.6868     0.8610 C.ar    
  31 C31           -1.8112     2.7311    -0.1405 C.ar    
  32 C32           -0.6065     2.1805    -0.5317 C.ar    
  33 F33           -3.0229     4.2280     1.2387 F       
  34 H34            4.6564     2.0385    -1.5811 H       
  35 H35            5.1053    -0.7620    -1.0215 H       
  36 H36            1.7317    -2.4826     0.9420 H       
  37 H37            0.5677    -0.3160     0.8728 H       
  38 H38            6.8173    -3.6968    -0.9924 H       
  39 H39            4.0963    -1.7430     2.8616 H       
  40 H40            5.2325    -0.8779     4.8448 H       
  41 H41            7.6852    -0.9402     5.0027 H       
  42 H42            9.0297    -1.8699     3.1726 H       
  43 H43            9.6018    -2.2799    -0.0457 H       
  44 H44            9.7564    -3.3175     1.3923 H       
  45 H45            9.2835    -4.0268    -0.1702 H       
  46 H46            3.3575    -3.6778     1.7592 H       
  47 H47            1.4512     3.8489     1.5720 H       
  48 H48           -0.6978     4.8335     2.2573 H       
  49 H49           -2.7278     2.4193    -0.6192 H       
  50 H50           -0.5808     1.4387    -1.3162 H       
@<TRIPOS>BOND
   1    1    2 am
   2    1    5 am
   3    1   10 2
   4    2    3 1
   5    2   34 1
   6    3    4 ar
   7    3    6 ar
   8    4    5 1
   9    4    9 ar
  10    5   27 1
  11    6    7 ar
  12    6   35 1
  13    7    8 ar
  14    7   11 1
  15    8    9 ar
  16    8   36 1
  17    9   37 1
  18   11   12 1
  19   11   15 1
  20   11   23 1
  21   12   24 1
  22   12   25 1
  23   12   26 1
  24   13   14 1
  25   13   21 1
  26   13   22 1
  27   14   15 2
  28   14   38 1
  29   15   16 1
  30   16   17 ar
  31   16   21 ar
  32   17   18 ar
  33   17   39 1
  34   18   19 ar
  35   18   40 1
  36   19   20 ar
  37   19   41 1
  38   20   21 ar
  39   20   42 1
  40   22   43 1
  41   22   44 1
  42   22   45 1
  43   23   46 1
  44   27   28 ar
  45   27   32 ar
  46   28   29 ar
  47   28   47 1
  48   29   30 ar
  49   29   48 1
  50   30   31 ar
  51   30   33 1
  52   31   32 ar
  53   31   49 1
  54   32   50 1

#	End of record

