#	Name: ASD02670002
#	Creating user name:	WinNT
#	Creation time:	15. 06. 2019 20:26

#	Modifying user name:	WinNT
#	Modification time:	15. 06. 2019 20:26

#	Program:	/corina/corina34_cracker 3.40 0067  02.08.2006

@<TRIPOS>MOLECULE
ASD02670002
  41   43    0    0    0
SMALL
NO_CHARGES


@<TRIPOS>ATOM
   1 C1            -1.8777     1.3521     1.3748 C.ar    
   2 O2            -0.3681     1.4682    -0.4669 O.3     
   3 C3            -1.2321    -2.1692     0.0037 C.3     
   4 O4             0.2309    -0.3827    -1.5126 O.2     
   5 C5            -1.7895    -2.8488     1.2560 C.3     
   6 O6            -0.2506    -4.7052     1.0947 O.3     
   7 C7            -1.6383    -4.3655     1.1232 C.3     
   8 O8            -2.7118    -0.8667     2.0264 O.3     
   9 C9            -2.3068    -5.0511     2.3166 C.3     
  10 C10           -2.1114    -2.4922    -1.1768 C.ar    
  11 C11           -1.5942    -3.1863    -2.2545 C.ar    
  12 C12           -2.4008    -3.4826    -3.3373 C.ar    
  13 C13           -3.7248    -3.0851    -3.3422 C.ar    
  14 C14           -4.2423    -2.3918    -2.2641 C.ar    
  15 C15           -0.4210     0.1358    -0.6229 C.2     
  16 C16           -3.4368    -2.0993    -1.1794 C.ar    
  17 C17           -1.2010    -0.6772     0.2135 C.2     
  18 C18           -1.9422    -0.1087     1.2124 C.2     
  19 C19           -2.6085     1.9989     2.3731 C.ar    
  20 C20           -2.5263     3.3684     2.4980 C.ar    
  21 C21           -1.7231     4.1028     1.6384 C.ar    
  22 C22           -0.9960     3.4760     0.6479 C.ar    
  23 C23           -1.0688     2.0971     0.5014 C.ar    
  24 H24           -0.2215    -2.5305    -0.1865 H       
  25 H25           -1.2396    -2.5042     2.1317 H       
  26 H26           -2.8442    -2.5972     1.3670 H       
  27 H27           -0.0793    -5.6533     1.0118 H       
  28 H28           -2.1130    -4.6986     0.2002 H       
  29 H29           -3.1924    -0.3612     2.6962 H       
  30 H30           -3.3653    -4.7920     2.3383 H       
  31 H31           -2.1991    -6.1316     2.2220 H       
  32 H32           -1.8321    -4.7181     3.2396 H       
  33 H33           -0.5598    -3.4969    -2.2507 H       
  34 H34           -1.9965    -4.0243    -4.1796 H       
  35 H35           -4.3548    -3.3160    -4.1885 H       
  36 H36           -5.2765    -2.0809    -2.2680 H       
  37 H37           -3.8420    -1.5609    -0.3354 H       
  38 H38           -3.2349     1.4290     3.0434 H       
  39 H39           -3.0903     3.8725     3.2687 H       
  40 H40           -1.6667     5.1760     1.7455 H       
  41 H41           -0.3737     4.0579    -0.0159 H       
@<TRIPOS>BOND
   1    1   18 1
   2    1   19 ar
   3    1   23 ar
   4    2   15 1
   5    2   23 1
   6    3    5 1
   7    3   10 1
   8    3   17 1
   9    3   24 1
  10    4   15 2
  11    5    7 1
  12    5   25 1
  13    5   26 1
  14    6    7 1
  15    6   27 1
  16    7    9 1
  17    7   28 1
  18    8   18 1
  19    8   29 1
  20    9   30 1
  21    9   31 1
  22    9   32 1
  23   10   11 ar
  24   10   16 ar
  25   11   12 ar
  26   11   33 1
  27   12   13 ar
  28   12   34 1
  29   13   14 ar
  30   13   35 1
  31   14   16 ar
  32   14   36 1
  33   15   17 1
  34   16   37 1
  35   17   18 2
  36   19   20 ar
  37   19   38 1
  38   20   21 ar
  39   20   39 1
  40   21   22 ar
  41   21   40 1
  42   22   23 ar
  43   22   41 1

#	End of record

