#	Name: ASD01152545
#	Creating user name:	WinNT
#	Creation time:	15. 06. 2019 19:06

#	Modifying user name:	WinNT
#	Modification time:	15. 06. 2019 19:06

#	Program:	/corina/corina34_cracker 3.40 0067  02.08.2006

@<TRIPOS>MOLECULE
ASD01152545
  57   60    0    0    0
SMALL
NO_CHARGES


@<TRIPOS>ATOM
   1 C1             0.1114     1.1571    -0.6959 C.2     
   2 N2             0.0189    -0.1436    -0.6175 N.2     
   3 N3            -1.1205    -0.7661    -0.1080 N.am    
   4 C4            -2.2615    -0.0993     0.1330 C.2     
   5 C5            -2.3924     1.3536    -0.2592 C.3     
   6 C6            -1.0084     1.9736    -0.2035 C.2     
   7 C7            -2.9557     1.4586    -1.6778 C.3     
   8 O8            -0.8358     3.0970     0.2224 O.2     
   9 C9            -1.0734    -2.1389     0.1623 C.ar    
  10 O10           -3.1907    -0.6664     0.6673 O.2     
  11 C11           -3.1985     2.9070    -2.0160 C.ar    
  12 C12           -0.0101    -2.6693     0.8797 C.ar    
  13 C13           -2.0939    -2.9703    -0.2824 C.ar    
  14 C14           -2.0490    -4.3251    -0.0160 C.ar    
  15 C15           -0.9884    -4.8582     0.6946 C.ar    
  16 C16            0.0334    -4.0297     1.1463 C.ar    
  17 C17           -2.1975     3.6511    -2.6050 C.ar    
  18 C18           -4.4255     3.4815    -1.7392 C.ar    
  19 C19           -4.6484     4.8102    -2.0537 C.ar    
  20 C20           -2.4125     4.9904    -2.9212 C.ar    
  21 F21           -0.9477    -6.1834     0.9543 F       
  22 C22           -3.6496     5.5556    -2.6404 C.ar    
  23 C23           -3.5964     6.9969    -3.1087 C.3     
  24 C24           -2.3359     6.9957    -4.0057 C.3     
  25 O25           -1.5705     5.9013    -3.4819 O.3     
  26 C26           -4.8438     7.3549    -3.9190 C.3     
  27 C27           -3.4238     7.9505    -1.9246 C.3     
  28 O28            1.2212     1.7435    -1.2163 O.3     
  29 C29            2.2637     0.8753    -1.6654 C.3     
  30 N30            1.1045    -4.5683     1.8702 N.am    
  31 C31            1.7680    -3.8044     2.7605 C.2     
  32 O32            1.4983    -2.6269     2.8693 O.2     
  33 C33            2.8451    -4.4133     3.6209 C.3     
  34 H34           -3.0529     1.8665     0.4399 H       
  35 H35           -2.2419     1.0353    -2.3844 H       
  36 H36           -3.8952     0.9092    -1.7373 H       
  37 H37            0.7820    -2.0238     1.2294 H       
  38 H38           -2.9234    -2.5568    -0.8368 H       
  39 H39           -2.8435    -4.9693    -0.3628 H       
  40 H40           -1.2434     3.1936    -2.8214 H       
  41 H41           -5.2072     2.8949    -1.2796 H       
  42 H42           -5.6053     5.2628    -1.8396 H       
  43 H43           -2.6024     6.8083    -5.0459 H       
  44 H44           -1.7918     7.9352    -3.9086 H       
  45 H45           -5.7304     7.2207    -3.2994 H       
  46 H46           -4.7808     8.3938    -4.2430 H       
  47 H47           -4.9088     6.7054    -4.7919 H       
  48 H48           -2.4957     7.7174    -1.4027 H       
  49 H49           -3.3885     8.9777    -2.2875 H       
  50 H50           -4.2642     7.8356    -1.2401 H       
  51 H51            3.0888     1.4704    -2.0568 H       
  52 H52            2.6166     0.2693    -0.8309 H       
  53 H53            1.8808     0.2239    -2.4511 H       
  54 H54            1.3688    -5.4911     1.7308 H       
  55 H55            2.9446    -5.4724     3.3831 H       
  56 H56            3.7917    -3.9076     3.4302 H       
  57 H57            2.5780    -4.3003     4.6716 H       
@<TRIPOS>BOND
   1    1    2 2
   2    1   28 1
   3    1    6 1
   4    2    3 1
   5    3    4 am
   6    3    9 1
   7    4    5 1
   8    4   10 2
   9    5    6 1
  10    5    7 1
  11    5   34 1
  12    6    8 2
  13    7   11 1
  14    7   35 1
  15    7   36 1
  16    9   12 ar
  17    9   13 ar
  18   11   17 ar
  19   11   18 ar
  20   12   16 ar
  21   12   37 1
  22   13   14 ar
  23   13   38 1
  24   14   15 ar
  25   14   39 1
  26   15   16 ar
  27   15   21 1
  28   16   30 1
  29   17   20 ar
  30   17   40 1
  31   18   19 ar
  32   18   41 1
  33   19   22 ar
  34   19   42 1
  35   20   22 ar
  36   20   25 1
  37   22   23 1
  38   23   24 1
  39   23   26 1
  40   23   27 1
  41   24   25 1
  42   24   43 1
  43   24   44 1
  44   26   45 1
  45   26   46 1
  46   26   47 1
  47   27   48 1
  48   27   49 1
  49   27   50 1
  50   28   29 1
  51   29   51 1
  52   29   52 1
  53   29   53 1
  54   30   31 am
  55   30   54 1
  56   31   32 2
  57   31   33 1
  58   33   55 1
  59   33   56 1
  60   33   57 1

#	End of record

