#	Name: ASD04590625
#	Creating user name:	WinNT
#	Creation time:	15. 06. 2019 20:51

#	Modifying user name:	WinNT
#	Modification time:	15. 06. 2019 20:51

#	Program:	/corina/corina34_cracker 3.40 0067  02.08.2006

@<TRIPOS>MOLECULE
ASD04590625
  78   82    0    0    0
SMALL
NO_CHARGES


@<TRIPOS>ATOM
   1 C1            -0.0160     1.3260     0.0093 C.ar    
   2 N2             0.0021    -0.0041     0.0020 N.ar    
   3 C3             1.1420    -0.6852    -0.0124 C.ar    
   4 C4             2.3934    -0.0192    -0.0211 C.ar    
   5 C5             2.4522     1.3685    -0.0139 C.ar    
   6 C6             1.2424     2.0762     0.0013 C.ar    
   7 C7             1.2032     3.4811     0.0097 C.ar    
   8 C8            -0.0002     4.1159     0.0251 C.ar    
   9 C9            -1.1985     3.4055     0.0333 C.ar    
  10 C10           -1.2261     2.0460     0.0306 C.ar    
  11 C11            1.1039    -2.1493    -0.0199 C.ar    
  12 C12            2.2375    -2.8733    -0.0343 C.ar    
  13 C13            3.5481    -2.2250    -0.0424 C.ar    
  14 C14            5.9406    -2.3313    -0.0631 C.ar    
  15 C15            7.1621    -3.0271    -0.0773 C.ar    
  16 C16            8.3295    -2.3280    -0.0840 C.ar    
  17 C17            8.3451    -0.9355    -0.0771 C.ar    
  18 C18            7.1971    -0.2060    -0.0634 C.ar    
  19 C19            5.9545    -0.8663    -0.0558 C.ar    
  20 N20            4.8073    -0.1905    -0.0452 N.ar    
  21 C21            3.6385    -0.8093    -0.0373 C.ar    
  22 C22            4.7086    -2.9975    -0.0561 C.ar    
  23 C23            9.6364    -3.0783    -0.0987 C.3     
  24 N24           10.0491    -3.3156    -1.4884 N.3     
  25 C25           11.3222    -4.0466    -1.5420 C.3     
  26 C26           11.7185    -4.2744    -3.0021 C.3     
  27 C27           13.0445    -5.0357    -3.0579 C.3     
  28 N28           13.4249    -5.2545    -4.4598 N.3     
  29 C29           13.7245    -3.9814    -5.1288 C.3     
  30 C30           14.5605    -6.1811    -4.5586 C.3     
  31 C31           -0.0376     5.6224     0.0340 C.3     
  32 N32           -0.0633     6.1198    -1.3480 N.3     
  33 C33           -0.1002     7.5880    -1.3785 C.3     
  34 C34           -0.1261     8.0674    -2.8312 C.3     
  35 C35           -0.1645     9.5966    -2.8629 C.3     
  36 N36           -0.1894    10.0570    -4.2577 N.3     
  37 C37           -1.4398     9.6622    -4.9201 C.3     
  38 C38            0.0119    11.5100    -4.3362 C.3     
  39 H39            3.4002     1.8860    -0.0204 H       
  40 H40            2.1201     4.0517     0.0043 H       
  41 H41           -2.1314     3.9495     0.0463 H       
  42 H42           -2.1702     1.5217     0.0412 H       
  43 H43            0.1501    -2.6560    -0.0135 H       
  44 H44            2.1786    -3.9517    -0.0395 H       
  45 H45            7.1738    -4.1070    -0.0825 H       
  46 H46            9.2945    -0.4207    -0.0825 H       
  47 H47            7.2391     0.8732    -0.0587 H       
  48 H48            4.6591    -4.0763    -0.0609 H       
  49 H49           10.3990    -2.4898     0.4114 H       
  50 H50            9.5127    -4.0334     0.4117 H       
  51 H51            9.3300    -3.8038    -2.0009 H       
  52 H52           12.0965    -3.4648    -1.0419 H       
  53 H53           11.2103    -5.0084    -1.0415 H       
  54 H54           10.9442    -4.8562    -3.5022 H       
  55 H55           11.8305    -3.3126    -3.5025 H       
  56 H56           13.8188    -4.4539    -2.5578 H       
  57 H57           12.9325    -5.9975    -2.5574 H       
  58 H58           14.5493    -3.4867    -4.6159 H       
  59 H59           14.0032    -4.1723    -6.1651 H       
  60 H60           12.8432    -3.3406    -5.1017 H       
  61 H61           14.2870    -7.1394    -4.1171 H       
  62 H62           14.8215    -6.3254    -5.6070 H       
  63 H63           15.4156    -5.7661    -4.0251 H       
  64 H64           -0.9313     5.9605     0.5586 H       
  65 H65            0.8481     6.0048     0.5414 H       
  66 H66            0.7220     5.7667    -1.8740 H       
  67 H67           -0.9942     7.9398    -0.8637 H       
  68 H68            0.7851     7.9840    -0.8809 H       
  69 H69            0.7679     7.7156    -3.3459 H       
  70 H70           -1.0114     7.6714    -3.3287 H       
  71 H71           -1.0586     9.9484    -2.3482 H       
  72 H72            0.7207     9.9927    -2.3654 H       
  73 H73           -2.2855    10.1022    -4.3917 H       
  74 H74           -1.4320    10.0155    -5.9512 H       
  75 H75           -1.5296     8.5759    -4.9089 H       
  76 H76            0.9774    11.7671    -3.9005 H       
  77 H77           -0.0111    11.8241    -5.3797 H       
  78 H78           -0.7813    12.0169    -3.7866 H       
@<TRIPOS>BOND
   1    1    2 ar
   2    1    6 ar
   3    1   10 ar
   4    2    3 ar
   5    3    4 ar
   6    3   11 ar
   7    4    5 ar
   8    4   21 ar
   9    5    6 ar
  10    5   39 1
  11    6    7 ar
  12    7    8 ar
  13    7   40 1
  14    8    9 ar
  15    8   31 1
  16    9   10 ar
  17    9   41 1
  18   10   42 1
  19   11   12 ar
  20   11   43 1
  21   12   13 ar
  22   12   44 1
  23   13   22 ar
  24   13   21 ar
  25   14   15 ar
  26   14   19 ar
  27   14   22 ar
  28   15   16 ar
  29   15   45 1
  30   16   17 ar
  31   16   23 1
  32   17   18 ar
  33   17   46 1
  34   18   19 ar
  35   18   47 1
  36   19   20 ar
  37   20   21 ar
  38   22   48 1
  39   23   24 1
  40   23   49 1
  41   23   50 1
  42   24   25 1
  43   24   51 1
  44   25   26 1
  45   25   52 1
  46   25   53 1
  47   26   27 1
  48   26   54 1
  49   26   55 1
  50   27   28 1
  51   27   56 1
  52   27   57 1
  53   28   29 1
  54   28   30 1
  55   29   58 1
  56   29   59 1
  57   29   60 1
  58   30   61 1
  59   30   62 1
  60   30   63 1
  61   31   32 1
  62   31   64 1
  63   31   65 1
  64   32   33 1
  65   32   66 1
  66   33   34 1
  67   33   67 1
  68   33   68 1
  69   34   35 1
  70   34   69 1
  71   34   70 1
  72   35   36 1
  73   35   71 1
  74   35   72 1
  75   36   37 1
  76   36   38 1
  77   37   73 1
  78   37   74 1
  79   37   75 1
  80   38   76 1
  81   38   77 1
  82   38   78 1

#	End of record

