#	Name: ASD01885790
#	Creating user name:	WinNT
#	Creation time:	15. 06. 2019 19:50

#	Modifying user name:	WinNT
#	Modification time:	15. 06. 2019 19:50

#	Program:	/corina/corina34_cracker 3.40 0067  02.08.2006

@<TRIPOS>MOLECULE
ASD01885790
  61   63    0    0    0
SMALL
NO_CHARGES


@<TRIPOS>ATOM
   1 C1             0.5228     1.0021    -0.2768 C.ar    
   2 C2            -0.7230     1.5667    -0.6502 C.ar    
   3 C3            -1.8480     0.7163    -0.7977 C.ar    
   4 C4            -1.6712    -0.6413    -0.5664 C.ar    
   5 C5            -0.4084    -1.1193    -0.2010 C.ar    
   6 N6             0.6268    -0.3111    -0.0689 N.ar    
   7 C7             1.5076     3.1835    -0.3543 C.ar    
   8 C8             0.2799     3.7345    -0.7146 C.ar    
   9 C9            -0.8222     2.9471    -0.8658 C.ar    
  10 C10           -3.1700     1.2591    -1.1856 C.2     
  11 C11           -0.2283    -2.5706     0.0448 C.2     
  12 C12            2.7060     4.0832    -0.1946 C.3     
  13 N13            2.8579     4.4501     1.2197 N.3     
  14 C14            1.6402     1.8468    -0.1365 C.ar    
  15 N15            0.9811    -3.0492     0.3982 N.am    
  16 O16           -1.1709    -3.3282    -0.0725 O.2     
  17 C17            1.7291     5.2751     1.6741 C.3     
  18 C18            1.8971     5.5839     3.1642 C.3     
  19 O19            3.1569     6.2276     3.3735 O.3     
  20 C20            4.2784     5.4517     2.9427 C.3     
  21 C21            4.1346     5.1415     1.4504 C.3     
  22 C22            0.7683     6.5084     3.6247 C.3     
  23 F23           -0.4640     5.8801     3.4151 F       
  24 F24            0.9225     6.7901     4.9864 F       
  25 F25            0.8143     7.7004     2.8938 F       
  26 C26           -3.8290     2.3550    -0.5910 C.2     
  27 N27           -4.9670     2.5267    -1.2084 N.2     
  28 N28           -5.0809     1.5577    -2.2124 N.pl3   
  29 C29           -3.9724     0.7932    -2.1895 C.2     
  30 C30           -6.2101     1.4044    -3.1330 C.3     
  31 C31            4.1602     6.4468     0.6525 C.3     
  32 H32           -2.5026    -1.3231    -0.6675 H       
  33 H33            0.2003     4.7994    -0.8758 H       
  34 H34           -1.7673     3.3853    -1.1509 H       
  35 H35            3.6006     3.5601    -0.5324 H       
  36 H36            2.5654     4.9848    -0.7908 H       
  37 H37            2.5989     1.4356     0.1432 H       
  38 H38            1.7336    -2.4444     0.4918 H       
  39 H39            1.0989    -3.9985     0.5589 H       
  40 H40            1.7089     6.2071     1.1093 H       
  41 H41            0.7962     4.7336     1.5175 H       
  42 H42            1.8627     4.6556     3.7344 H       
  43 H43            5.1966     6.0146     3.1106 H       
  44 H44            4.3141     4.5194     3.5064 H       
  45 H45            4.9576     4.5024     1.1305 H       
  46 H46           -3.4576     2.9484     0.2314 H       
  47 H47           -3.7590    -0.0407    -2.8418 H       
  48 H48           -6.0336     2.0022    -4.0272 H       
  49 H49           -6.3122     0.3555    -3.4114 H       
  50 H50           -7.1248     1.7416    -2.6453 H       
  51 H51            5.1312     6.9272     0.7729 H       
  52 H52            3.9897     6.2312    -0.4023 H       
  53 H53            3.3779     7.1117     1.0185 H       
  54 C54           11.1984    14.6075    10.8916 C.3     
  55 C55           11.2191    13.0777    10.8832 C.3     
  56 H56           12.2210    14.9848    10.8838 H       
  57 H57           10.6712    14.9686    10.0085 H       
  58 H58           10.6882    14.9590    11.7884 H       
  59 H59           11.7463    12.7166    11.7662 H       
  60 H60           10.1966    12.7004    10.8909 H       
  61 H61           11.7293    12.7262     9.9864 H       
@<TRIPOS>BOND
   1    1    6 ar
   2    1   14 ar
   3    1    2 ar
   4    2    3 ar
   5    2    9 ar
   6    3   10 1
   7    3    4 ar
   8    4    5 ar
   9    4   32 1
  10    5   11 1
  11    5    6 ar
  12    7   12 1
  13    7    8 ar
  14    7   14 ar
  15    8    9 ar
  16    8   33 1
  17    9   34 1
  18   10   26 1
  19   10   29 2
  20   11   15 am
  21   11   16 2
  22   12   13 1
  23   12   35 1
  24   12   36 1
  25   13   17 1
  26   13   21 1
  27   14   37 1
  28   15   38 1
  29   15   39 1
  30   17   18 1
  31   17   40 1
  32   17   41 1
  33   18   22 1
  34   18   19 1
  35   18   42 1
  36   19   20 1
  37   20   21 1
  38   20   43 1
  39   20   44 1
  40   21   31 1
  41   21   45 1
  42   22   23 1
  43   22   24 1
  44   22   25 1
  45   26   27 2
  46   26   46 1
  47   27   28 1
  48   28   29 1
  49   28   30 1
  50   29   47 1
  51   30   48 1
  52   30   49 1
  53   30   50 1
  54   31   51 1
  55   31   52 1
  56   31   53 1
  57   54   55 1
  58   54   56 1
  59   54   57 1
  60   54   58 1
  61   55   59 1
  62   55   60 1
  63   55   61 1

#	End of record

