#	Name: ASD01913295
#	Creating user name:	WinNT
#	Creation time:	15. 06. 2019 20:01

#	Modifying user name:	WinNT
#	Modification time:	15. 06. 2019 20:01

#	Program:	/corina/corina34_cracker 3.40 0067  02.08.2006

@<TRIPOS>MOLECULE
ASD01913295
  38   40    0    0    0
SMALL
NO_CHARGES


@<TRIPOS>ATOM
   1 C1            -0.0169     1.3971     0.0097 C.ar    
   2 C2             0.0021    -0.0041     0.0020 C.ar    
   3 C3             1.2454    -0.6502    -0.0133 C.ar    
   4 N4             2.3460     0.0795    -0.0199 N.ar    
   5 C5             2.2851     1.4038    -0.0122 C.ar    
   6 N6             1.1293     2.0528     0.0023 N.ar    
   7 N7             3.4624     2.1297    -0.0191 N.pl3   
   8 C8             3.4200     3.5941    -0.0108 C.3     
   9 C9            -1.2168    -0.7557     0.0101 C.1     
  10 C10           -2.2161    -1.3719     0.0167 C.1     
  11 C11           -3.4349    -2.1235     0.0248 C.ar    
  12 C12           -3.3984    -3.5204     0.0169 C.ar    
  13 C13           -4.5764    -4.2376     0.0252 C.ar    
  14 C14           -5.7924    -3.5773     0.0409 C.ar    
  15 C15           -5.8364    -2.1942     0.0487 C.ar    
  16 C16           -4.6665    -1.4637     0.0464 C.ar    
  17 C17            3.3278     4.1324     1.4386 C.3     
  18 C18            3.8949     5.5641     1.3472 C.3     
  19 C19            4.8067     5.5975     0.1082 C.3     
  20 C20            4.7619     4.1849    -0.5101 C.3     
  21 O21            4.3211     6.5587    -0.8312 O.3     
  22 H22           -0.9548     1.9326     0.0171 H       
  23 H23            1.3027    -1.7287    -0.0193 H       
  24 H24            4.3161     1.6693    -0.0294 H       
  25 H25            2.5868     3.9583    -0.6119 H       
  26 H26           -2.4501    -4.0371     0.0040 H       
  27 H27           -4.5498    -5.3173     0.0192 H       
  28 H28           -6.7117    -4.1441     0.0466 H       
  29 H29           -6.7890    -1.6856     0.0606 H       
  30 H30           -4.7023    -0.3843     0.0525 H       
  31 H31            2.2904     4.1536     1.7724 H       
  32 H32            3.9335     3.5243     2.1106 H       
  33 H33            3.0820     6.2811     1.2320 H       
  34 H34            4.4727     5.7947     2.2423 H       
  35 H35            5.8270     5.8443     0.4019 H       
  36 H36            5.5991     3.5853    -0.1529 H       
  37 H37            4.7711     4.2444    -1.5985 H       
  38 H38            4.3045     7.4647    -0.4938 H       
@<TRIPOS>BOND
   1    1    2 ar
   2    1    6 ar
   3    1   22 1
   4    2    3 ar
   5    2    9 1
   6    3    4 ar
   7    3   23 1
   8    4    5 ar
   9    5    6 ar
  10    5    7 1
  11    7    8 1
  12    7   24 1
  13    8   17 1
  14    8   20 1
  15    8   25 1
  16    9   10 3
  17   10   11 1
  18   11   12 ar
  19   11   16 ar
  20   12   13 ar
  21   12   26 1
  22   13   14 ar
  23   13   27 1
  24   14   15 ar
  25   14   28 1
  26   15   16 ar
  27   15   29 1
  28   16   30 1
  29   17   18 1
  30   17   31 1
  31   17   32 1
  32   18   19 1
  33   18   33 1
  34   18   34 1
  35   19   20 1
  36   19   21 1
  37   19   35 1
  38   20   36 1
  39   20   37 1
  40   21   38 1

#	End of record

