#	Name: ASD06170017
#	Creating user name:	WinNT
#	Creation time:	15. 06. 2019 21:05

#	Modifying user name:	WinNT
#	Modification time:	15. 06. 2019 21:05

#	Program:	/corina/corina34_cracker 3.40 0067  02.08.2006

@<TRIPOS>MOLECULE
ASD06170017
  69   74    0    0    0
SMALL
NO_CHARGES


@<TRIPOS>ATOM
   1 N1             1.1103    -0.0141    -1.1342 N.pl3   
   2 N2             1.5248    -1.2367    -1.6701 N.am    
   3 C3             2.8390    -1.4018    -1.4185 C.2     
   4 C4             3.2854    -0.2135    -0.6789 C.2     
   5 C5             2.1663     0.6063    -0.5362 C.2     
   6 C6             4.6396     0.0568    -0.1875 C.2     
   7 O7             4.8776     1.0956     0.4003 O.2     
   8 N8             5.6212    -0.8449    -0.3867 N.am    
   9 C9             2.8585     4.1898     0.3621 C.ar    
  10 C10            2.9229     2.9820    -0.3040 C.ar    
  11 C11            2.1315     1.9172     0.1440 C.ar    
  12 C12            1.3059     2.1304     1.2546 C.ar    
  13 C13            1.3049     3.3720     1.8590 C.ar    
  14 N14            2.0667     4.3472     1.4043 N.ar    
  15 C15            0.7086    -2.1422    -2.3555 C.ar    
  16 C16            1.1247    -2.6735    -3.5694 C.ar    
  17 C17            0.3165    -3.5678    -4.2435 C.ar    
  18 C18           -0.9061    -3.9340    -3.7112 C.ar    
  19 C19           -1.3235    -3.4069    -2.5028 C.ar    
  20 C20           -0.5174    -2.5165    -1.8209 C.ar    
  21 O21            3.5247    -2.3538    -1.7423 O.2     
  22 C22           -0.2510     0.5220    -1.2095 C.3     
  23 C23            6.8821    -0.6382     0.1727 C.ar    
  24 C24            7.2708     0.6464     0.5362 C.ar    
  25 C25            8.5231     0.8400     1.0904 C.ar    
  26 C26            9.3505    -0.2670     1.2636 C.ar    
  27 C27            8.8958    -1.5177     0.8777 C.ar    
  28 N28            7.6930    -1.6675     0.3566 N.ar    
  29 O29           10.5896    -0.1220     1.8042 O.3     
  30 N30           10.8488     0.3959     5.8878 N.ar    
  31 C31            9.6872     0.1592     5.3249 C.ar    
  32 C32            9.5607    -0.0197     3.9532 C.ar    
  33 C33           10.6825     0.0498     3.1459 C.ar    
  34 C34           11.9279     0.3047     3.7629 C.ar    
  35 C35           13.1089     0.3897     3.0105 C.ar    
  36 C36           14.2945     0.6378     3.6398 C.ar    
  37 C37           14.3436     0.8086     5.0307 C.ar    
  38 C38           13.2095     0.7308     5.7865 C.ar    
  39 C39           11.9742     0.4766     5.1679 C.ar    
  40 O40           15.5360     1.0542     5.6343 O.3     
  41 C41           15.5228     1.2192     7.0537 C.3     
  42 O42           15.4394     0.7198     2.9107 O.3     
  43 C43           15.3236     0.5362     1.4983 C.3     
  44 H44            5.4509    -1.6377    -0.9191 H       
  45 H45            3.4684     5.0159     0.0270 H       
  46 H46            3.5736     2.8604    -1.1574 H       
  47 H47            0.6792     1.3362     1.6325 H       
  48 H48            0.6716     3.5465     2.7162 H       
  49 H49            2.0792    -2.3873    -3.9860 H       
  50 H50            0.6395    -3.9812    -5.1875 H       
  51 H51           -1.5366    -4.6330    -4.2407 H       
  52 H52           -2.2790    -3.6947    -2.0900 H       
  53 H53           -0.8420    -2.1086    -0.8750 H       
  54 H54           -0.8685    -0.1385    -1.8182 H       
  55 H55           -0.6710     0.5893    -0.2059 H       
  56 H56           -0.2264     1.5141    -1.6604 H       
  57 H57            6.6035     1.4824     0.3873 H       
  58 H58            8.8518     1.8266     1.3819 H       
  59 H59            9.5319    -2.3807     1.0089 H       
  60 H60            8.8050     0.1021     5.9454 H       
  61 H61            8.5912    -0.2135     3.5187 H       
  62 H62           13.0803     0.2591     1.9388 H       
  63 H63           13.2618     0.8640     6.8570 H       
  64 H64           14.8828     2.0618     7.3156 H       
  65 H65           15.1391     0.3124     7.5213 H       
  66 H66           16.5364     1.4092     7.4068 H       
  67 H67           16.3076     0.6264     1.0383 H       
  68 H68           14.9157    -0.4534     1.2927 H       
  69 H69           14.6591     1.2958     1.0865 H       
@<TRIPOS>BOND
   1    1    2 1
   2    1    5 1
   3    1   22 1
   4    2    3 am
   5    2   15 1
   6    3    4 1
   7    3   21 2
   8    4    5 2
   9    4    6 1
  10    5   11 1
  11    6    7 2
  12    6    8 am
  13    8   23 1
  14    8   44 1
  15    9   10 ar
  16    9   14 ar
  17    9   45 1
  18   10   11 ar
  19   10   46 1
  20   11   12 ar
  21   12   13 ar
  22   12   47 1
  23   13   14 ar
  24   13   48 1
  25   15   16 ar
  26   15   20 ar
  27   16   17 ar
  28   16   49 1
  29   17   18 ar
  30   17   50 1
  31   18   19 ar
  32   18   51 1
  33   19   20 ar
  34   19   52 1
  35   20   53 1
  36   22   54 1
  37   22   55 1
  38   22   56 1
  39   23   24 ar
  40   23   28 ar
  41   24   25 ar
  42   24   57 1
  43   25   26 ar
  44   25   58 1
  45   26   27 ar
  46   26   29 1
  47   27   28 ar
  48   27   59 1
  49   29   33 1
  50   30   31 ar
  51   30   39 ar
  52   31   32 ar
  53   31   60 1
  54   32   33 ar
  55   32   61 1
  56   33   34 ar
  57   34   35 ar
  58   34   39 ar
  59   35   36 ar
  60   35   62 1
  61   36   37 ar
  62   36   42 1
  63   37   38 ar
  64   37   40 1
  65   38   39 ar
  66   38   63 1
  67   40   41 1
  68   41   64 1
  69   41   65 1
  70   41   66 1
  71   42   43 1
  72   43   67 1
  73   43   68 1
  74   43   69 1

#	End of record

