#	Name: ASD01120355
#	Creating user name:	WinNT
#	Creation time:	15. 06. 2019 18:59

#	Modifying user name:	WinNT
#	Modification time:	15. 06. 2019 18:59

#	Program:	/corina/corina34_cracker 3.40 0067  02.08.2006

@<TRIPOS>MOLECULE
ASD01120355
  30   31    0    0    0
SMALL
NO_CHARGES


@<TRIPOS>ATOM
   1 C1            -0.0168     1.3844     0.0097 C.ar    
   2 C2             0.0021    -0.0041     0.0020 C.ar    
   3 C3             1.2024    -0.6910    -0.0132 C.ar    
   4 C4             2.4065     0.0193    -0.0209 C.ar    
   5 C5             2.3787     1.4260    -0.0131 C.ar    
   6 C6             1.1469     2.0966     0.0024 C.ar    
   7 N7             3.7272    -0.3667    -0.0361 N.pl3   
   8 C8             4.5203     0.7641    -0.0379 C.2     
   9 C9             3.7239     1.8660    -0.0241 C.2     
  10 C10            4.1900     3.2991    -0.0215 C.3     
  11 C11            4.3336     3.7914    -1.4630 C.3     
  12 C12            4.7997     5.2245    -1.4604 C.2     
  13 O13            4.9959     5.8685    -2.6217 O.3     
  14 O14            4.9969     5.7937    -0.4131 O.2     
  15 C15            5.9893     0.7745    -0.0517 C.2     
  16 O16            6.5896     1.8316    -0.0516 O.2     
  17 O17            6.6717    -0.3884    -0.0645 O.3     
  18 N18            1.2115    -2.0895    -0.0203 N.pl3   
  19 H19           -0.9624     1.9060     0.0170 H       
  20 H20           -0.9285    -0.5522     0.0084 H       
  21 H21            1.1196     3.1763     0.0081 H       
  22 H22            4.0483    -1.2820    -0.0442 H       
  23 H23            3.4612     3.9173     0.5026 H       
  24 H24            5.1538     3.3668     0.4832 H       
  25 H25            5.0625     3.1732    -1.9872 H       
  26 H26            3.3699     3.7236    -1.9678 H       
  27 H27            5.2951     6.7866    -2.5694 H       
  28 H28            7.6369    -0.3310    -0.0732 H       
  29 H29            0.3747    -2.5800    -0.0146 H       
  30 H30            2.0547    -2.5689    -0.0310 H       
@<TRIPOS>BOND
   1    1    2 ar
   2    1    6 ar
   3    1   19 1
   4    2    3 ar
   5    2   20 1
   6    3    4 ar
   7    3   18 1
   8    4    5 ar
   9    4    7 1
  10    5    6 ar
  11    5    9 1
  12    6   21 1
  13    7    8 1
  14    7   22 1
  15    8    9 2
  16    8   15 1
  17    9   10 1
  18   10   11 1
  19   10   23 1
  20   10   24 1
  21   11   12 1
  22   11   25 1
  23   11   26 1
  24   12   13 1
  25   12   14 2
  26   13   27 1
  27   15   16 2
  28   15   17 1
  29   17   28 1
  30   18   29 1
  31   18   30 1

#	End of record

