#	Name: ASD01208898
#	Creating user name:	WinNT
#	Creation time:	15. 06. 2019 19:10

#	Modifying user name:	WinNT
#	Modification time:	15. 06. 2019 19:10

#	Program:	/corina/corina34_cracker 3.40 0067  02.08.2006

@<TRIPOS>MOLECULE
ASD01208898
  62   66    0    0    0
SMALL
NO_CHARGES


@<TRIPOS>ATOM
   1 C1            -0.5126     1.4587     1.4863 C.2     
   2 C2            -0.3529     0.1484     0.8208 C.ar    
   3 C3            -1.4370    -0.7252     0.7263 C.ar    
   4 C4            -1.2829    -1.9519     0.1020 C.ar    
   5 C5            -0.0524    -2.3128    -0.4288 C.ar    
   6 C6             1.0277    -1.4474    -0.3371 C.ar    
   7 C7             0.8807    -0.2160     0.2803 C.ar    
   8 O8             0.4329     2.2183     1.5676 O.2     
   9 N9            -1.7079     1.8134     1.9980 N.am    
  10 O10            2.2306    -1.8059    -0.8581 O.3     
  11 C11            2.3099    -3.0875    -1.4854 C.3     
  12 C12            5.2505    -4.9230    -3.1589 C.3     
  13 C13            3.8509    -4.7331    -2.5682 C.3     
  14 C14            3.7304    -3.3128    -2.0073 C.3     
  15 C15            4.0317    -2.3077    -3.1233 C.3     
  16 C16            5.4242    -2.5913    -3.6925 C.3     
  17 O17            5.4776    -3.9377    -4.1686 O.3     
  18 S18           -3.3116     3.6212     3.3143 S.3     
  19 C19           -1.8580     3.0445     2.6233 C.2     
  20 N20           -0.9161     3.9234     2.7683 N.2     
  21 C21           -1.2345     5.0434     3.3899 C.2     
  22 C22           -2.5059     5.1142     3.7891 C.2     
  23 C23           -3.1416     6.2697     4.5183 C.3     
  24 O24           -2.3379    -2.8034     0.0094 O.3     
  25 C25           -3.1557    -2.6906    -1.0691 C.ar    
  26 C26           -2.8399    -1.8005    -2.0879 C.ar    
  27 C27           -3.6671    -1.6831    -3.1838 C.ar    
  28 C28           -4.8237    -2.4607    -3.2696 C.ar    
  29 C29           -5.1374    -3.3546    -2.2438 C.ar    
  30 C30           -4.3027    -3.4697    -1.1534 C.ar    
  31 O31           -6.8556    -3.0218    -4.6557 O.3     
  32 C32           -5.7137    -2.3376    -4.4428 C.2     
  33 N33           -5.5397    -1.5415    -5.4721 N.2     
  34 N34           -6.5109    -1.7014    -6.3008 N.2     
  35 C35           -7.3361    -2.5978    -5.8377 C.2     
  36 C36           -8.6002    -3.0731    -6.5064 C.3     
  37 H37           -2.3947    -0.4453     1.1398 H       
  38 H38            0.0646    -3.2704    -0.9144 H       
  39 H39            1.7210     0.4592     0.3470 H       
  40 H40           -2.4634     1.2088     1.9295 H       
  41 H41            2.0619    -3.8628    -0.7604 H       
  42 H42            1.6064    -3.1291    -2.3169 H       
  43 H43            5.9955    -4.8143    -2.3707 H       
  44 H44            5.3278    -5.9178    -3.5977 H       
  45 H45            3.1034    -4.8817    -3.3474 H       
  46 H46            3.6923    -5.4555    -1.7675 H       
  47 H47            4.4432    -3.1804    -1.1934 H       
  48 H48            3.2878    -2.4073    -3.9138 H       
  49 H49            4.0023    -1.2956    -2.7196 H       
  50 H50            5.6268    -1.9063    -4.5158 H       
  51 H51            6.1715    -2.4521    -2.9113 H       
  52 H52           -0.5238     5.8383     3.5613 H       
  53 H53           -4.1900     6.0439     4.7131 H       
  54 H54           -2.6233     6.4324     5.4633 H       
  55 H55           -3.0713     7.1687     3.9059 H       
  56 H56           -1.9451    -1.1994    -2.0207 H       
  57 H57           -3.4214    -0.9904    -3.9751 H       
  58 H58           -6.0314    -3.9574    -2.3065 H       
  59 H59           -4.5427    -4.1636    -0.3613 H       
  60 H60           -9.4362    -2.4507    -6.1873 H       
  61 H61           -8.4874    -3.0033    -7.5882 H       
  62 H62           -8.7914    -4.1093    -6.2272 H       
@<TRIPOS>BOND
   1    1    2 1
   2    1    8 2
   3    1    9 am
   4    2    3 ar
   5    2    7 ar
   6    3    4 ar
   7    3   37 1
   8    4    5 ar
   9    4   24 1
  10    5    6 ar
  11    5   38 1
  12    6    7 ar
  13    6   10 1
  14    7   39 1
  15    9   19 1
  16    9   40 1
  17   10   11 1
  18   11   14 1
  19   11   41 1
  20   11   42 1
  21   12   13 1
  22   12   17 1
  23   12   43 1
  24   12   44 1
  25   13   14 1
  26   13   45 1
  27   13   46 1
  28   14   15 1
  29   14   47 1
  30   15   16 1
  31   15   48 1
  32   15   49 1
  33   16   17 1
  34   16   50 1
  35   16   51 1
  36   18   19 1
  37   18   22 1
  38   19   20 2
  39   20   21 1
  40   21   22 2
  41   21   52 1
  42   22   23 1
  43   23   53 1
  44   23   54 1
  45   23   55 1
  46   24   25 1
  47   25   26 ar
  48   25   30 ar
  49   26   27 ar
  50   26   56 1
  51   27   28 ar
  52   27   57 1
  53   28   29 ar
  54   28   32 1
  55   29   30 ar
  56   29   58 1
  57   30   59 1
  58   31   32 1
  59   31   35 1
  60   32   33 2
  61   33   34 1
  62   34   35 2
  63   35   36 1
  64   36   60 1
  65   36   61 1
  66   36   62 1

#	End of record

