#	Name: ASD04590391
#	Creating user name:	WinNT
#	Creation time:	15. 06. 2019 20:50

#	Modifying user name:	WinNT
#	Modification time:	15. 06. 2019 20:50

#	Program:	/corina/corina34_cracker 3.40 0067  02.08.2006

@<TRIPOS>MOLECULE
ASD04590391
  36   39    0    0    0
SMALL
NO_CHARGES


@<TRIPOS>ATOM
   1 C1            -0.0167     1.3836     0.0096 C.ar    
   2 C2             0.0021    -0.0041     0.0020 C.ar    
   3 C3             2.4035     0.0238    -0.0209 C.ar    
   4 C4             2.3773     1.4291    -0.0130 C.ar    
   5 C5             1.1618     2.0990     0.0022 C.ar    
   6 N6             3.7057    -0.3531    -0.0358 N.2     
   7 C7             4.4719     0.7107    -0.0376 C.2     
   8 N8             3.6970     1.8394    -0.0239 N.pl3   
   9 C9             5.9494     0.6941    -0.0514 C.2     
  10 C10            6.7676    -0.4591    -0.0651 C.2     
  11 C11            8.0595    -0.0490    -0.0757 C.2     
  12 N12            8.0653     1.3099    -0.0690 N.pl3   
  13 N13            6.7364     1.7520    -0.0588 N.2     
  14 N14            6.3217    -1.7907    -0.0670 N.am    
  15 C15            7.2144    -2.8003    -0.0808 C.2     
  16 O16            8.4061    -2.5582    -0.0916 O.2     
  17 C17            6.7459    -4.1992    -0.0828 C.ar    
  18 C18            1.1977    -0.6870    -0.0131 C.ar    
  19 C19            6.0961    -6.1828     1.1145 C.ar    
  20 C20            5.8661    -6.8292    -0.0865 C.ar    
  21 C21            6.0774    -6.1732    -1.2856 C.ar    
  22 C22            6.5158    -4.8624    -1.2930 C.ar    
  23 F23            6.7212    -4.2233    -2.4654 F       
  24 C24            6.5346    -4.8721     1.1255 C.ar    
  25 F25            6.7591    -4.2427     2.2997 F       
  26 Cl26           1.2095    -2.4229    -0.0220 Cl      
  27 H27           -0.9615     1.9068     0.0170 H       
  28 H28           -0.9282    -0.5526     0.0084 H       
  29 H29            1.1393     3.1788     0.0079 H       
  30 H30            4.0148     2.7559    -0.0221 H       
  31 H31            8.9297    -0.6886    -0.0868 H       
  32 H32            8.8532     1.8757    -0.0738 H       
  33 H33            5.3711    -1.9839    -0.0584 H       
  34 H34            5.9285    -6.7024     2.0463 H       
  35 H35            5.5238    -7.8535    -0.0879 H       
  36 H36            5.8957    -6.6855    -2.2189 H       
@<TRIPOS>BOND
   1    1    2 ar
   2    1    5 ar
   3    1   27 1
   4    2   18 ar
   5    2   28 1
   6    3    4 ar
   7    3    6 1
   8    3   18 ar
   9    4    5 ar
  10    4    8 1
  11    5   29 1
  12    6    7 2
  13    7    8 1
  14    7    9 1
  15    8   30 1
  16    9   10 1
  17    9   13 2
  18   10   11 2
  19   10   14 1
  20   11   12 1
  21   11   31 1
  22   12   13 1
  23   12   32 1
  24   14   15 am
  25   14   33 1
  26   15   16 2
  27   15   17 1
  28   17   24 ar
  29   17   22 ar
  30   18   26 1
  31   19   20 ar
  32   19   24 ar
  33   19   34 1
  34   20   21 ar
  35   20   35 1
  36   21   22 ar
  37   21   36 1
  38   22   23 1
  39   24   25 1

#	End of record

