#	Name: ASD02500505
#	Creating user name:	WinNT
#	Creation time:	15. 06. 2019 20:22

#	Modifying user name:	WinNT
#	Modification time:	15. 06. 2019 20:22

#	Program:	/corina/corina34_cracker 3.40 0067  02.08.2006

@<TRIPOS>MOLECULE
ASD02500505
  68   72    0    0    0
SMALL
NO_CHARGES


@<TRIPOS>ATOM
   1 N1             3.9744     3.0591    -1.5803 N.ar    
   2 C2             4.8803     2.6587    -0.7217 C.ar    
   3 C3             5.8499     1.7184    -1.0638 C.ar    
   4 C4             5.8717     1.1888    -2.3225 C.ar    
   5 C5             4.8969     1.6207    -3.2418 C.ar    
   6 C6             4.8567     1.1216    -4.5533 C.ar    
   7 C7             3.8981     1.5649    -5.4129 C.ar    
   8 C8             2.9562     2.5083    -5.0083 C.ar    
   9 C9             2.9660     3.0133    -3.7445 C.ar    
  10 C10            3.9398     2.5804    -2.8280 C.ar    
  11 S11            1.7632     4.2060    -3.2593 S.o2    
  12 O12            2.4753     5.2576    -2.6217 O.2     
  13 O13            0.9219     4.4089    -4.3864 O.2     
  14 N14            0.8205     3.5048    -2.0923 N.am    
  15 C15            0.0308     2.4040    -2.4051 C.ar    
  16 C16            0.0244     1.2929    -1.5663 C.ar    
  17 C17           -0.7561     0.2018    -1.8731 C.ar    
  18 C18           -1.5430     0.2100    -3.0285 C.ar    
  19 C19           -1.5344     1.3272    -3.8687 C.ar    
  20 C20           -0.7562     2.4175    -3.5534 C.ar    
  21 C21           -2.3805    -0.9582    -3.3606 C.2     
  22 O22           -3.5069    -0.7966    -3.7893 O.2     
  23 N23           -1.8972    -2.2045    -3.1889 N.am    
  24 C24           -2.6710    -3.2975    -3.6190 C.3     
  25 C25           -2.9673    -4.2524    -2.4347 C.3     
  26 N26           -1.7478    -4.9568    -2.0953 N.3     
  27 C27           -0.9446    -4.3428    -1.0176 C.3     
  28 C28           -0.8209    -2.8246    -1.1355 C.3     
  29 C29           -0.5708    -2.3741    -2.5612 C.3     
  30 C30           -2.0195    -6.3717    -1.8085 C.3     
  31 C31           -2.4536    -7.0662    -3.0735 C.ar    
  32 C32           -3.7996    -7.2600    -3.3305 C.ar    
  33 C33           -4.1977    -7.8988    -4.4928 C.ar    
  34 C34           -3.2520    -8.3435    -5.3980 C.ar    
  35 C35           -1.9076    -8.1515    -5.1452 C.ar    
  36 C36           -1.5052    -7.5067    -3.9842 C.ar    
  37 O37           -0.1830    -7.3126    -3.7370 O.3     
  38 C38            0.7377    -7.7924    -4.7189 C.3     
  39 F39           -4.7252    -6.8265    -2.4470 F       
  40 H40            4.8753     3.0690     0.2774 H       
  41 H41            6.5838     1.4088    -0.3344 H       
  42 H42            6.6163     0.4592    -2.6049 H       
  43 H43            5.5819     0.3905    -4.8787 H       
  44 H44            3.8678     1.1804    -6.4217 H       
  45 H45            2.2063     2.8446    -5.7090 H       
  46 H46            0.8192     3.8621    -1.1904 H       
  47 H47            0.6329     1.2870    -0.6740 H       
  48 H48           -0.7603    -0.6600    -1.2222 H       
  49 H49           -2.1411     1.3364    -4.7622 H       
  50 H50           -0.7527     3.2828    -4.1996 H       
  51 H51           -3.6119    -2.9323    -4.0307 H       
  52 H52           -2.1277    -3.8409    -4.3920 H       
  53 H53           -3.3080    -3.6750    -1.5753 H       
  54 H54           -3.7353    -4.9692    -2.7256 H       
  55 H55           -1.4062    -4.5816    -0.0595 H       
  56 H56            0.0551    -4.7767    -1.0374 H       
  57 H57           -1.7422    -2.3665    -0.7758 H       
  58 H58            0.0058    -2.4883    -0.5097 H       
  59 H59            0.0009    -3.1313    -3.0978 H       
  60 H60           -0.0324    -1.4264    -2.5666 H       
  61 H61           -1.1152    -6.8450    -1.4262 H       
  62 H62           -2.8114    -6.4458    -1.0632 H       
  63 H63           -5.2482    -8.0500    -4.6924 H       
  64 H64           -3.5647    -8.8420    -6.3035 H       
  65 H65           -1.1699    -8.4997    -5.8530 H       
  66 H66            1.7566    -7.5738    -4.3990 H       
  67 H67            0.6165    -8.8694    -4.8351 H       
  68 H68            0.5425    -7.2999    -5.6715 H       
@<TRIPOS>BOND
   1    1    2 ar
   2    1   10 ar
   3    2    3 ar
   4    2   40 1
   5    3    4 ar
   6    3   41 1
   7    4    5 ar
   8    4   42 1
   9    5    6 ar
  10    5   10 ar
  11    6    7 ar
  12    6   43 1
  13    7    8 ar
  14    7   44 1
  15    8    9 ar
  16    8   45 1
  17    9   10 ar
  18    9   11 1
  19   11   12 2
  20   11   13 2
  21   11   14 am
  22   14   15 1
  23   14   46 1
  24   15   16 ar
  25   15   20 ar
  26   16   17 ar
  27   16   47 1
  28   17   18 ar
  29   17   48 1
  30   18   19 ar
  31   18   21 1
  32   19   20 ar
  33   19   49 1
  34   20   50 1
  35   21   22 2
  36   21   23 am
  37   23   24 1
  38   23   29 1
  39   24   25 1
  40   24   51 1
  41   24   52 1
  42   25   26 1
  43   25   53 1
  44   25   54 1
  45   26   27 1
  46   26   30 1
  47   27   28 1
  48   27   55 1
  49   27   56 1
  50   28   29 1
  51   28   57 1
  52   28   58 1
  53   29   59 1
  54   29   60 1
  55   30   31 1
  56   30   61 1
  57   30   62 1
  58   31   32 ar
  59   31   36 ar
  60   32   33 ar
  61   32   39 1
  62   33   34 ar
  63   33   63 1
  64   34   35 ar
  65   34   64 1
  66   35   36 ar
  67   35   65 1
  68   36   37 1
  69   37   38 1
  70   38   66 1
  71   38   67 1
  72   38   68 1

#	End of record

