#	Name: ASD03082230
#	Creating user name:	WinNT
#	Creation time:	15. 06. 2019 20:27

#	Modifying user name:	WinNT
#	Modification time:	15. 06. 2019 20:27

#	Program:	/corina/corina34_cracker 3.40 0067  02.08.2006

@<TRIPOS>MOLECULE
ASD03082230
  39   41    0    0    0
SMALL
NO_CHARGES


@<TRIPOS>ATOM
   1 N1            -0.4156     1.1173    -0.0107 N.am    
   2 N2            -0.1420    -0.2602    -0.0142 N.2     
   3 C3             1.1638    -0.3920    -0.0181 C.2     
   4 N4             1.7293     0.8180    -0.0173 N.2     
   5 C5             0.7960     1.7462    -0.0128 C.2     
   6 N6             1.8521    -1.6042    -0.0224 N.pl3   
   7 C7             1.1493    -2.8081     0.0935 C.ar    
   8 C8             1.6902    -3.9813    -0.4169 C.ar    
   9 C9             0.9948    -5.1687    -0.3009 C.ar    
  10 C10           -0.2412    -5.1903     0.3235 C.ar    
  11 C11           -0.7823    -4.0222     0.8330 C.ar    
  12 C12           -0.0876    -2.8332     0.7243 C.ar    
  13 C13            1.5811    -6.4418    -0.8545 C.3     
  14 F14            2.8253    -6.1692    -1.4332 F       
  15 F15            1.7413    -7.3699     0.1800 F       
  16 F16            0.7210    -6.9682    -1.8242 F       
  17 C17            2.0676     5.1731     0.8794 C.ar    
  18 C18            1.8886     3.8025     0.9147 C.ar    
  19 C19            1.0198     3.2080    -0.0106 C.ar    
  20 C20            0.3706     4.0365    -0.9324 C.ar    
  21 C21            0.6088     5.3952    -0.8952 C.ar    
  22 N22            1.4344     5.9154    -0.0078 N.ar    
  23 C23           -1.6304     1.7011    -0.0110 C.2     
  24 N24           -2.7410     0.9459    -0.1238 N.am    
  25 F25           -0.9202    -6.3529     0.4351 F       
  26 C26           -4.0614     1.5804    -0.1241 C.3     
  27 O27           -1.7243     2.9083     0.0904 O.2     
  28 F28            2.5410     3.0484     1.8262 F       
  29 H29            2.8185    -1.6129    -0.1059 H       
  30 H30            2.6537    -3.9648    -0.9045 H       
  31 H31           -1.7465    -4.0413     1.3192 H       
  32 H32           -0.5080    -1.9230     1.1258 H       
  33 H33            2.7312     5.6424     1.5906 H       
  34 H34           -0.3066     3.6187    -1.6625 H       
  35 H35            0.1122     6.0420    -1.6033 H       
  36 H36           -2.6659    -0.0178    -0.2047 H       
  37 H37           -4.1300     2.2761    -0.9605 H       
  38 H38           -4.8319     0.8158    -0.2234 H       
  39 H39           -4.2048     2.1215     0.8112 H       
@<TRIPOS>BOND
   1    1    2 1
   2    1    5 1
   3    1   23 am
   4    2    3 2
   5    3    4 1
   6    3    6 1
   7    4    5 2
   8    5   19 1
   9    6    7 1
  10    6   29 1
  11    7    8 ar
  12    7   12 ar
  13    8    9 ar
  14    8   30 1
  15    9   10 ar
  16    9   13 1
  17   10   11 ar
  18   10   25 1
  19   11   12 ar
  20   11   31 1
  21   12   32 1
  22   13   14 1
  23   13   15 1
  24   13   16 1
  25   17   18 ar
  26   17   22 ar
  27   17   33 1
  28   18   19 ar
  29   18   28 1
  30   19   20 ar
  31   20   21 ar
  32   20   34 1
  33   21   22 ar
  34   21   35 1
  35   23   24 am
  36   23   27 2
  37   24   26 1
  38   24   36 1
  39   26   37 1
  40   26   38 1
  41   26   39 1

#	End of record

