#	Name: ASD03080081
#	Creating user name:	WinNT
#	Creation time:	15. 06. 2019 20:26

#	Modifying user name:	WinNT
#	Modification time:	15. 06. 2019 20:26

#	Program:	/corina/corina34_cracker 3.40 0067  02.08.2006

@<TRIPOS>MOLECULE
ASD03080081
  27   29    0    0    0
SMALL
NO_CHARGES


@<TRIPOS>ATOM
   1 O1            -0.0164     1.3549     0.0095 O.3     
   2 C2             0.0021    -0.0041     0.0020 C.ar    
   3 C3             0.0230    -0.7042     1.2005 C.ar    
   4 C4             0.0418    -2.0869     1.1990 C.ar    
   5 C5             0.0394    -2.7798     0.0059 C.ar    
   6 C6             0.0180    -2.0843    -1.2043 C.ar    
   7 C7            -0.0058    -0.6898    -1.2012 C.ar    
   8 C8             0.0155    -2.8235    -2.4848 C.2     
   9 O9            -0.0034    -2.2897    -3.7159 O.3     
  10 N10            0.0010    -3.1714    -4.5486 N.2     
  11 C11            0.0227    -4.3441    -3.9688 C.2     
  12 N12            0.0373    -4.1342    -2.6359 N.2     
  13 C13            0.0346    -5.6623    -4.6514 C.ar    
  14 C14            0.0231    -5.7394    -6.0464 C.ar    
  15 C15            0.0355    -6.9926    -6.6349 C.ar    
  16 C16            0.0585    -8.1172    -5.8308 C.ar    
  17 N17            0.0689    -8.0126    -4.5158 N.ar    
  18 C18            0.0632    -6.8423    -3.9115 C.ar    
  19 H19            0.8616     1.7602     0.0033 H       
  20 H20            0.0249    -0.1671     2.1374 H       
  21 H21            0.0587    -2.6261     2.1346 H       
  22 H22            0.0545    -3.8597     0.0082 H       
  23 H23           -0.0227    -0.1462    -2.1343 H       
  24 H24            0.0048    -4.8442    -6.6502 H       
  25 H25            0.0268    -7.0906    -7.7105 H       
  26 H26            0.0678    -9.0963    -6.2864 H       
  27 H27            0.0725    -6.7972    -2.8325 H       
@<TRIPOS>BOND
   1    1    2 1
   2    1   19 1
   3    2    3 ar
   4    2    7 ar
   5    3    4 ar
   6    3   20 1
   7    4    5 ar
   8    4   21 1
   9    5    6 ar
  10    5   22 1
  11    6    7 ar
  12    6    8 1
  13    7   23 1
  14    8    9 1
  15    8   12 2
  16    9   10 1
  17   10   11 2
  18   11   12 1
  19   11   13 1
  20   13   14 ar
  21   13   18 ar
  22   14   15 ar
  23   14   24 1
  24   15   16 ar
  25   15   25 1
  26   16   17 ar
  27   16   26 1
  28   17   18 ar
  29   18   27 1

#	End of record

