#	Name: ASD02030299
#	Creating user name:	WinNT
#	Creation time:	15. 06. 2019 20:15

#	Modifying user name:	WinNT
#	Modification time:	15. 06. 2019 20:15

#	Program:	/corina/corina34_cracker 3.40 0067  02.08.2006

@<TRIPOS>MOLECULE
ASD02030299
  58   62    0    0    0
SMALL
NO_CHARGES


@<TRIPOS>ATOM
   1 N1            -0.3628     1.4609    -0.3842 N.am    
   2 C2            -0.3787    -0.0081    -0.3428 C.3     
   3 C3            -1.1633    -0.4550     0.8969 C.3     
   4 N4            -2.4422     0.2684     0.9292 N.am    
   5 C5            -2.4263     1.7374     0.8878 C.3     
   6 C6            -1.6414     2.1844    -0.3462 C.3     
   7 C7             0.8038     2.1327    -0.4501 C.2     
   8 C8             2.0847     1.4000    -0.3615 C.2     
   9 N9             3.2824     1.9406    -0.2969 N.2     
  10 N10            2.2308     0.0627    -0.3268 N.2     
  11 C11            3.5130    -0.1866    -0.2468 C.2     
  12 N12            4.1582     0.9978    -0.2289 N.pl3   
  13 C13            5.5464     1.1734    -0.1508 C.ar    
  14 O14            0.8027     3.3411    -0.5824 O.2     
  15 C15           -3.6087    -0.4034     0.9951 C.2     
  16 C16           -3.6150    -1.8785     0.9410 C.ar    
  17 O17           -4.6559     0.2056     1.0992 O.2     
  18 C18            6.0863     2.4524    -0.1407 C.ar    
  19 C19            7.4550     2.6222    -0.0636 C.ar    
  20 C20            8.2871     1.5200     0.0035 C.ar    
  21 C21            7.7523     0.2446    -0.0069 C.ar    
  22 C22            6.3844     0.0685    -0.0775 C.ar    
  23 C23           -1.3792     3.6899    -0.2704 C.3     
  24 C24           -2.7210    -2.6120     1.7247 C.ar    
  25 C25            8.0419     4.0102    -0.0530 C.3     
  26 C26           -4.5187    -2.5450     0.1103 C.ar    
  27 C27           -4.5230    -3.9228     0.0631 C.ar    
  28 C28           -3.6304    -4.6531     0.8402 C.ar    
  29 C29           -2.7293    -3.9938     1.6724 C.ar    
  30 O30           -3.6575    -6.0115     0.7836 O.3     
  31 C31           -2.5071    -6.7003     1.2850 C.3     
  32 C32           -2.1268    -6.0812     2.6367 C.3     
  33 O33           -1.8440    -4.6941     2.4336 O.3     
  34 Cl34          -5.6471    -4.7491    -0.9699 Cl      
  35 H35           -0.8619    -0.3941    -1.2404 H       
  36 H36            0.6430    -0.3834    -0.2842 H       
  37 H37           -1.3508    -1.5274     0.8441 H       
  38 H38           -0.5901    -0.2250     1.7951 H       
  39 H39           -3.4479     2.1128     0.8292 H       
  40 H40           -1.9431     2.1234     1.7854 H       
  41 H41           -2.2124     1.9549    -1.2459 H       
  42 H42            3.9713    -1.1634    -0.2009 H       
  43 H43            5.4369     3.3137    -0.1934 H       
  44 H44            9.3569     1.6553     0.0637 H       
  45 H45            8.4048    -0.6144     0.0449 H       
  46 H46            5.9674    -0.9277    -0.0856 H       
  47 H47           -0.7140     3.9011     0.5668 H       
  48 H48           -0.9140     4.0248    -1.1975 H       
  49 H49           -2.3228     4.2162    -0.1266 H       
  50 H50           -2.0234    -2.1001     2.3710 H       
  51 H51            8.1235     4.3624     0.9753 H       
  52 H52            9.0315     3.9897    -0.5096 H       
  53 H53            7.3953     4.6823    -0.6171 H       
  54 H54           -5.2138    -1.9814    -0.4943 H       
  55 H55           -2.7400    -7.7569     1.4172 H       
  56 H56           -1.6790    -6.5908     0.5847 H       
  57 H57           -2.9574    -6.1845     3.3350 H       
  58 H58           -1.2455    -6.5831     3.0360 H       
@<TRIPOS>BOND
   1    1    2 1
   2    1    7 am
   3    1    6 1
   4    2    3 1
   5    2   35 1
   6    2   36 1
   7    3    4 1
   8    3   37 1
   9    3   38 1
  10    4    5 1
  11    4   15 am
  12    5    6 1
  13    5   39 1
  14    5   40 1
  15    6   23 1
  16    6   41 1
  17    7    8 1
  18    7   14 2
  19    8    9 2
  20    8   10 1
  21    9   12 1
  22   10   11 2
  23   11   12 1
  24   11   42 1
  25   12   13 1
  26   13   18 ar
  27   13   22 ar
  28   15   16 1
  29   15   17 2
  30   16   26 ar
  31   16   24 ar
  32   18   19 ar
  33   18   43 1
  34   19   20 ar
  35   19   25 1
  36   20   21 ar
  37   20   44 1
  38   21   22 ar
  39   21   45 1
  40   22   46 1
  41   23   47 1
  42   23   48 1
  43   23   49 1
  44   24   29 ar
  45   24   50 1
  46   25   51 1
  47   25   52 1
  48   25   53 1
  49   26   27 ar
  50   26   54 1
  51   27   28 ar
  52   27   34 1
  53   28   29 ar
  54   28   30 1
  55   29   33 1
  56   30   31 1
  57   31   32 1
  58   31   55 1
  59   31   56 1
  60   32   33 1
  61   32   57 1
  62   32   58 1

#	End of record

