#	Name: ASD01940098
#	Creating user name:	WinNT
#	Creation time:	15. 06. 2019 20:11

#	Modifying user name:	WinNT
#	Modification time:	15. 06. 2019 20:11

#	Program:	/corina/corina34_cracker 3.40 0067  02.08.2006

@<TRIPOS>MOLECULE
ASD01940098
  65   69    0    0    0
SMALL
NO_CHARGES


@<TRIPOS>ATOM
   1 C1             1.2991     1.8110    -1.1300 C.ar    
   2 C2             1.2991     0.4325    -1.3143 C.ar    
   3 C3             1.9229    -0.1156    -2.4269 C.ar    
   4 C4             2.5412     0.7086    -3.3469 C.ar    
   5 C5             2.5404     2.0790    -3.1615 C.ar    
   6 C6             1.9156     2.6304    -2.0581 C.ar    
   7 F7             0.6930     2.3492    -0.0492 F       
   8 N8             0.6723    -0.4001    -0.3802 N.pl3   
   9 C9             0.5907    -1.7458    -0.6099 C.2     
  10 N10           -0.5154    -2.2729    -1.2053 N.am    
  11 C11            1.6395    -2.5826    -0.2419 C.2     
  12 C12            1.5425    -3.9786    -0.4865 C.2     
  13 C13            0.4041    -4.4750    -1.0867 C.2     
  14 C14           -0.6206    -3.5920    -1.4428 C.2     
  15 C15           -1.6131    -1.3841    -1.5943 C.3     
  16 O16           -1.6297    -4.0272    -1.9742 O.2     
  17 C17            0.2686    -5.9506    -1.3611 C.3     
  18 C18            2.8568    -2.0754     0.3959 C.2     
  19 N19            3.8250    -2.9604     0.7191 N.am    
  20 C20            3.6880    -4.2714     0.4681 C.2     
  21 N21            2.5941    -4.7935    -0.1145 N.am    
  22 O22            2.9924    -0.8885     0.6281 O.2     
  23 O23            4.5927    -5.0203     0.7813 O.2     
  24 C24            5.0521    -2.4779     1.3575 C.3     
  25 C25            6.3630    -2.6475     0.5869 C.3     
  26 C26            5.7385    -1.2589     0.7379 C.3     
  27 C27            2.5203    -6.1731    -0.3450 C.ar    
  28 C28            3.2343    -6.7425    -1.3919 C.ar    
  29 C29            1.7386    -6.9732     0.4754 C.ar    
  30 C30            1.6683    -8.3397     0.2441 C.ar    
  31 C31            2.3805    -8.9021    -0.8075 C.ar    
  32 C32            3.1621    -8.1030    -1.6199 C.ar    
  33 N33            0.8813    -9.1502     1.0697 N.am    
  34 C34            0.2487   -10.2233     0.5552 C.2     
  35 C35           -0.6820   -11.0350     1.4189 C.3     
  36 O36            0.4285   -10.5358    -0.6028 O.2     
  37 C37           -1.2645   -12.1874     0.5981 C.3     
  38 N38           -2.1718   -12.9786     1.4399 N.3     
  39 H39            1.9251    -1.1857    -2.5728 H       
  40 H40            3.0265     0.2820    -4.2124 H       
  41 H41            3.0250     2.7204    -3.8827 H       
  42 H42            1.9167     3.7010    -1.9162 H       
  43 H43            0.2956    -0.0227     0.4301 H       
  44 H44           -1.4087    -0.9636    -2.5789 H       
  45 H45           -2.5444    -1.9497    -1.6270 H       
  46 H46           -1.7032    -0.5778    -0.8664 H       
  47 H47           -0.0952    -6.4548    -0.4658 H       
  48 H48           -0.4372    -6.1051    -2.1772 H       
  49 H49            1.2402    -6.3593    -1.6388 H       
  50 H50            5.0891    -2.5795     2.4421 H       
  51 H51            7.2625    -2.8603     1.1646 H       
  52 H52            6.3124    -3.1180    -0.3950 H       
  53 H53            5.2770    -0.8159    -0.1447 H       
  54 H54            6.2271    -0.5582     1.4149 H       
  55 H55            3.8463    -6.1206    -2.0285 H       
  56 H56            1.1860    -6.5336     1.2926 H       
  57 H57            2.3266    -9.9655    -0.9878 H       
  58 H58            3.7146    -8.5425    -2.4372 H       
  59 H59            0.7910    -8.9397     2.0123 H       
  60 H60           -0.1309   -11.4368     2.2692 H       
  61 H61           -1.4914   -10.3994     1.7781 H       
  62 H62           -1.8156   -11.7856    -0.2522 H       
  63 H63           -0.4551   -12.8230     0.2389 H       
  64 H64           -2.8947   -12.3979     1.8376 H       
  65 H65           -2.5697   -13.7465     0.9203 H       
@<TRIPOS>BOND
   1    1    2 ar
   2    1    7 1
   3    1    6 ar
   4    2    3 ar
   5    2    8 1
   6    3    4 ar
   7    3   39 1
   8    4    5 ar
   9    4   40 1
  10    5    6 ar
  11    5   41 1
  12    6   42 1
  13    8    9 1
  14    8   43 1
  15    9   10 1
  16    9   11 2
  17   10   15 1
  18   10   14 am
  19   11   12 1
  20   11   18 1
  21   12   13 2
  22   12   21 1
  23   13   14 1
  24   13   17 1
  25   14   16 2
  26   15   44 1
  27   15   45 1
  28   15   46 1
  29   17   47 1
  30   17   48 1
  31   17   49 1
  32   18   19 am
  33   18   22 2
  34   19   20 am
  35   19   24 1
  36   20   21 am
  37   20   23 2
  38   21   27 1
  39   24   25 1
  40   24   26 1
  41   24   50 1
  42   25   26 1
  43   25   51 1
  44   25   52 1
  45   26   53 1
  46   26   54 1
  47   27   28 ar
  48   27   29 ar
  49   28   32 ar
  50   28   55 1
  51   29   30 ar
  52   29   56 1
  53   30   31 ar
  54   30   33 1
  55   31   32 ar
  56   31   57 1
  57   32   58 1
  58   33   34 am
  59   33   59 1
  60   34   35 1
  61   34   36 2
  62   35   37 1
  63   35   60 1
  64   35   61 1
  65   37   38 1
  66   37   62 1
  67   37   63 1
  68   38   64 1
  69   38   65 1

#	End of record

