#	Name: ASD01410027
#	Creating user name:	WinNT
#	Creation time:	15. 06. 2019 19:16

#	Modifying user name:	WinNT
#	Modification time:	15. 06. 2019 19:16

#	Program:	/corina/corina34_cracker 3.40 0067  02.08.2006

@<TRIPOS>MOLECULE
ASD01410027
  36   37    0    0    0
SMALL
NO_CHARGES


@<TRIPOS>ATOM
   1 C1            -0.0248     1.3893    -0.0255 C.ar    
   2 C2            -1.2333     2.0630    -0.0183 C.ar    
   3 C3            -2.4195     1.3554    -0.0002 C.ar    
   4 C4            -2.3986    -0.0317     0.0107 C.ar    
   5 C5            -1.1860    -0.7054     0.0034 C.ar    
   6 C6            -0.0019     0.0058    -0.0200 C.ar    
   7 O7            -3.5648    -0.7297     0.0290 O.3     
   8 C8            -4.7715     0.0262     0.1495 C.3     
   9 C9            -5.8477    -0.8385     0.7538 C.2     
  10 N10           -7.0796    -0.3336     0.9629 N.am    
  11 C11           -8.1047    -1.1621     1.4125 C.ar    
  12 C12           -8.0596    -2.5266     1.1613 C.ar    
  13 C13           -9.0769    -3.3462     1.6078 C.ar    
  14 C14          -10.1485    -2.8163     2.3079 C.ar    
  15 C15          -10.2106    -1.4641     2.5668 C.ar    
  16 C16           -9.1857    -0.6226     2.1268 C.ar    
  17 C17           -9.2454     0.8243     2.4006 C.2     
  18 O18          -10.2378     1.3257     3.1619 O.3     
  19 O19           -8.3996     1.5652     1.9398 O.2     
  20 O20           -5.6051    -1.9888     1.0519 O.2     
  21 Cl21           1.4647     2.2808    -0.0489 Cl      
  22 C22           -5.2163     0.5009    -1.2353 C.3     
  23 H23           -4.5966     0.8900     0.7909 H       
  24 H24           -1.2491     3.1429    -0.0264 H       
  25 H25           -3.3626     1.8816     0.0058 H       
  26 H26           -1.1677    -1.7852     0.0119 H       
  27 H27            0.9424    -0.5183    -0.0260 H       
  28 H28           -7.2523     0.6070     0.8003 H       
  29 H29           -7.2280    -2.9474     0.6156 H       
  30 H30           -9.0372    -4.4072     1.4098 H       
  31 H31          -10.9395    -3.4661     2.6522 H       
  32 H32          -11.0484    -1.0560     3.1126 H       
  33 H33          -10.2351     2.2807     3.3137 H       
  34 H34           -6.1368     1.0775    -1.1434 H       
  35 H35           -4.4379     1.1264    -1.6724 H       
  36 H36           -5.3912    -0.3629    -1.8767 H       
@<TRIPOS>BOND
   1    1    2 ar
   2    1   21 1
   3    1    6 ar
   4    2    3 ar
   5    2   24 1
   6    3    4 ar
   7    3   25 1
   8    4    5 ar
   9    4    7 1
  10    5    6 ar
  11    5   26 1
  12    6   27 1
  13    7    8 1
  14    8    9 1
  15    8   22 1
  16    8   23 1
  17    9   10 am
  18    9   20 2
  19   10   11 1
  20   10   28 1
  21   11   12 ar
  22   11   16 ar
  23   12   13 ar
  24   12   29 1
  25   13   14 ar
  26   13   30 1
  27   14   15 ar
  28   14   31 1
  29   15   16 ar
  30   15   32 1
  31   16   17 1
  32   17   18 1
  33   17   19 2
  34   18   33 1
  35   22   34 1
  36   22   35 1
  37   22   36 1

#	End of record

