#	Name: ASD01811575
#	Creating user name:	WinNT
#	Creation time:	15. 06. 2019 19:27

#	Modifying user name:	WinNT
#	Modification time:	15. 06. 2019 19:27

#	Program:	/corina/corina34_cracker 3.40 0067  02.08.2006

@<TRIPOS>MOLECULE
ASD01811575
  27   27    0    0    0
SMALL
NO_CHARGES


@<TRIPOS>ATOM
   1 O1            -0.0175     1.4400     0.0100 O.3     
   2 C2             0.0021    -0.0041     0.0020 C.3     
   3 C3             1.1335    -0.3781    -0.9811 C.3     
   4 C4             2.0544     0.8626    -0.9832 C.3     
   5 C5             1.3704     1.8394    -0.0011 C.3     
   6 C6             2.0475    -2.8167    -2.8122 C.3     
   7 S7             1.3717    -2.8376    -1.1289 S.o2    
   8 O8            -0.0442    -2.7216    -1.1585 O.2     
   9 O9             2.0085    -3.8398    -0.3483 O.2     
  10 O10            1.8429    -1.5273    -0.5142 O.3     
  11 C11            4.4117     2.9421    -0.4788 C.3     
  12 S12            4.4842     1.2810    -1.2041 S.o2    
  13 O13            4.0992     1.3167    -2.5715 O.2     
  14 O14            5.6667     0.6087    -0.7933 O.2     
  15 O15            3.3606     0.5175    -0.5177 O.3     
  16 H16            0.2236    -0.3860     0.9986 H       
  17 H17           -0.9522    -0.3946    -0.3515 H       
  18 H18            0.7300    -0.5559    -1.9779 H       
  19 H19            2.1061     1.2981    -1.9811 H       
  20 H20            1.4672     2.8651    -0.3571 H       
  21 H21            1.8018     1.7402     0.9949 H       
  22 H22            1.6580    -1.9519    -3.3494 H       
  23 H23            3.1349    -2.7565    -2.7664 H       
  24 H24            1.7557    -3.7291    -3.3322 H       
  25 H25            3.4362     3.3846    -0.6810 H       
  26 H26            4.5640     2.8751     0.5984 H       
  27 H27            5.1911     3.5647    -0.9180 H       
@<TRIPOS>BOND
   1    1    2 1
   2    1    5 1
   3    2    3 1
   4    2   16 1
   5    2   17 1
   6    3    4 1
   7    3   10 1
   8    3   18 1
   9    4    5 1
  10    4   15 1
  11    4   19 1
  12    5   20 1
  13    5   21 1
  14    6    7 1
  15    6   22 1
  16    6   23 1
  17    6   24 1
  18    7    8 2
  19    7    9 2
  20    7   10 1
  21   11   12 1
  22   11   25 1
  23   11   26 1
  24   11   27 1
  25   12   13 2
  26   12   14 2
  27   12   15 1

#	End of record

