#	Name: ASD07300431
#	Creating user name:	WinNT
#	Creation time:	15. 06. 2019 21:09

#	Modifying user name:	WinNT
#	Modification time:	15. 06. 2019 21:09

#	Program:	/corina/corina34_cracker 3.40 0067  02.08.2006

@<TRIPOS>MOLECULE
ASD07300431
  48   53    0    0    0
SMALL
NO_CHARGES


@<TRIPOS>ATOM
   1 C1            -0.0169     1.3941     0.0097 C.ar    
   2 C2             0.0021    -0.0041     0.0020 C.ar    
   3 C3             1.2199    -0.6674    -0.0125 C.ar    
   4 C4             2.3808     0.0923    -0.0188 C.ar    
   5 C5             2.2878     1.4713    -0.0106 C.ar    
   6 N6             1.1161     2.0768     0.0026 N.ar    
   7 C7            -2.1139     0.6622     0.0347 C.2     
   8 N8            -1.3542     1.7734     0.0301 N.am    
   9 N9            -1.3235    -0.4279     0.0124 N.am    
  10 O10           -3.3304     0.6453     0.0513 O.2     
  11 C11           -1.8316     3.0922     0.0444 C.ar    
  12 C12           -3.1985     3.3354     0.0644 C.ar    
  13 C13           -3.6685     4.6333     0.0789 C.ar    
  14 C14           -2.7741     5.6957     0.0735 C.ar    
  15 C15           -1.4069     5.4522     0.0535 C.ar    
  16 C16           -0.9372     4.1542     0.0443 C.ar    
  17 C17           -2.4817     8.1543     0.0845 C.2     
  18 N18           -1.2377     8.5863     0.0709 N.2     
  19 C19           -1.2256     9.9423     0.0861 C.ar    
  20 C20           -2.5653    10.3686     0.1108 C.ar    
  21 N21           -3.3362     9.2182     0.1092 N.pl3   
  22 C22           -0.2009    10.8935     0.0821 C.ar    
  23 C23           -0.5128    12.2340     0.1023 C.ar    
  24 C24           -1.8364    12.6489     0.1271 C.ar    
  25 C25           -2.8596    11.7234     0.1305 C.ar    
  26 N26           -3.2511     7.0133     0.0878 N.pl3   
  27 C27           -4.5815     7.3998     0.1072 C.2     
  28 C28           -4.6334     8.7265     0.1229 C.2     
  29 C29           -1.7801    -1.8199     0.0085 C.3     
  30 C30           -1.9250    -2.3131     1.4496 C.3     
  31 H31            1.2635    -1.7465    -0.0183 H       
  32 H32            3.3476    -0.3890    -0.0297 H       
  33 H33            3.1908     2.0638    -0.0155 H       
  34 H34           -3.8940     2.5092     0.0682 H       
  35 H35           -4.7317     4.8225     0.0941 H       
  36 H36           -0.7113     6.2783     0.0493 H       
  37 H37            0.1260     3.9648     0.0329 H       
  38 H38            0.8317    10.5776     0.0636 H       
  39 H39            0.2790    12.9685     0.0992 H       
  40 H40           -2.0675    13.7037     0.1435 H       
  41 H41           -3.8877    12.0536     0.1493 H       
  42 H42           -5.4322     6.7345     0.1143 H       
  43 H43           -5.5339     9.3225     0.1429 H       
  44 H44           -2.7439    -1.8847    -0.4964 H       
  45 H45           -1.0527    -2.4395    -0.5161 H       
  46 H46           -0.9612    -2.2483     1.9544 H       
  47 H47           -2.6524    -1.6936     1.9742 H       
  48 H48           -2.2648    -3.3488     1.4467 H       
@<TRIPOS>BOND
   1    1    2 ar
   2    1    6 ar
   3    1    8 1
   4    2    3 ar
   5    2    9 1
   6    3    4 ar
   7    3   31 1
   8    4    5 ar
   9    4   32 1
  10    5    6 ar
  11    5   33 1
  12    7    8 am
  13    7    9 am
  14    7   10 2
  15    8   11 1
  16    9   29 1
  17   11   12 ar
  18   11   16 ar
  19   12   13 ar
  20   12   34 1
  21   13   14 ar
  22   13   35 1
  23   14   15 ar
  24   14   26 1
  25   15   16 ar
  26   15   36 1
  27   16   37 1
  28   17   18 2
  29   17   21 1
  30   17   26 1
  31   18   19 1
  32   19   20 ar
  33   19   22 ar
  34   20   21 1
  35   20   25 ar
  36   21   28 1
  37   22   23 ar
  38   22   38 1
  39   23   24 ar
  40   23   39 1
  41   24   25 ar
  42   24   40 1
  43   25   41 1
  44   26   27 1
  45   27   28 2
  46   27   42 1
  47   28   43 1
  48   29   30 1
  49   29   44 1
  50   29   45 1
  51   30   46 1
  52   30   47 1
  53   30   48 1

#	End of record

