#	Name: ASD01916057
#	Creating user name:	WinNT
#	Creation time:	15. 06. 2019 20:06

#	Modifying user name:	WinNT
#	Modification time:	15. 06. 2019 20:06

#	Program:	/corina/corina34_cracker 3.40 0067  02.08.2006

@<TRIPOS>MOLECULE
ASD01916057
  42   44    0    0    0
SMALL
NO_CHARGES


@<TRIPOS>ATOM
   1 C1            -0.0169     1.3969     0.0097 C.ar    
   2 C2             0.0021    -0.0041     0.0020 C.ar    
   3 N3            -1.1459    -0.6583     0.0090 N.ar    
   4 C4            -2.2953    -0.0124     0.0230 C.ar    
   5 C5            -3.5770    -0.8051     0.0310 C.3     
   6 C6             1.2009     2.1501     0.0021 C.1     
   7 C7             2.1994     2.7677    -0.0041 C.1     
   8 C8             3.4172     3.5209    -0.0117 C.ar    
   9 C9             3.3782     4.9179    -0.0038 C.ar    
  10 C10            5.8187     3.5929    -0.0285 C.ar    
  11 C11            4.5542     5.6375    -0.0112 C.ar    
  12 N12           -2.3599     1.3046     0.0307 N.ar    
  13 C13           -1.2618     2.0396     0.0192 C.ar    
  14 C14            4.6496     2.8621    -0.0212 C.ar    
  15 C15            5.7734     4.9782    -0.0264 C.ar    
  16 C16           -4.4299    -0.4675    -1.2139 C.3     
  17 C17           -4.4464    -0.3943     1.1989 C.2     
  18 N18           -5.7187    -0.2363     0.7950 N.am    
  19 C19           -5.8623    -0.5197    -0.6378 C.3     
  20 C20           -6.8205     0.1664     1.6725 C.3     
  21 O21           -4.0528    -0.2317     2.3345 O.2     
  22 C22           -6.7393     0.5434    -1.3024 C.3     
  23 C23           -6.4658    -1.9103    -0.8447 C.3     
  24 F24            6.9224     5.6889    -0.0332 F       
  25 H25            0.9395    -0.5403    -0.0098 H       
  26 H26           -3.3635    -1.8733     0.0689 H       
  27 H27            2.4288     5.4326     0.0077 H       
  28 H28            6.7717     3.0849    -0.0404 H       
  29 H29            4.5253     6.7171    -0.0055 H       
  30 H30           -1.3229     3.1178     0.0255 H       
  31 H31            4.6862     1.7827    -0.0225 H       
  32 H32           -4.1961     0.5291    -1.5883 H       
  33 H33           -4.2955    -1.2171    -1.9937 H       
  34 H34           -6.4438     0.3135     2.6847 H       
  35 H35           -7.2542     1.0973     1.3073 H       
  36 H36           -7.5835    -0.6121     1.6784 H       
  37 H37           -6.2928     1.5268    -1.1551 H       
  38 H38           -6.8163     0.3356    -2.3697 H       
  39 H39           -7.7335     0.5252    -0.8561 H       
  40 H40           -7.4581    -1.9463    -0.3950 H       
  41 H41           -6.5429    -2.1178    -1.9120 H       
  42 H42           -5.8265    -2.6574    -0.3745 H       
@<TRIPOS>BOND
   1    1    2 ar
   2    1    6 1
   3    1   13 ar
   4    2    3 ar
   5    2   25 1
   6    3    4 ar
   7    4   12 ar
   8    4    5 1
   9    5   16 1
  10    5   17 1
  11    5   26 1
  12    6    7 3
  13    7    8 1
  14    8    9 ar
  15    8   14 ar
  16    9   11 ar
  17    9   27 1
  18   10   15 ar
  19   10   14 ar
  20   10   28 1
  21   11   15 ar
  22   11   29 1
  23   12   13 ar
  24   13   30 1
  25   14   31 1
  26   15   24 1
  27   16   19 1
  28   16   32 1
  29   16   33 1
  30   17   18 am
  31   17   21 2
  32   18   19 1
  33   18   20 1
  34   19   22 1
  35   19   23 1
  36   20   34 1
  37   20   35 1
  38   20   36 1
  39   22   37 1
  40   22   38 1
  41   22   39 1
  42   23   40 1
  43   23   41 1
  44   23   42 1

#	End of record

