#	Name: ASD04910415
#	Creating user name:	WinNT
#	Creation time:	15. 06. 2019 20:55

#	Modifying user name:	WinNT
#	Modification time:	15. 06. 2019 20:55

#	Program:	/corina/corina34_cracker 3.40 0067  02.08.2006

@<TRIPOS>MOLECULE
ASD04910415
  61   63    0    0    0
SMALL
NO_CHARGES


@<TRIPOS>ATOM
   1 C1            -1.3039     1.3398    -0.7289 C.2     
   2 C2            -1.1477    -0.1580    -0.6724 C.3     
   3 C3             0.3366    -0.5121    -0.5605 C.3     
   4 O4            -0.3282     2.0511    -0.6843 O.2     
   5 O5            -2.5266     1.8836    -0.8344 O.3     
   6 C6             1.7165    -2.5144    -0.4052 C.2     
   7 C7             1.8697    -3.9838    -0.3497 C.ar    
   8 C8             3.1401    -4.5526    -0.2458 C.ar    
   9 C9             3.2761    -5.9245    -0.1941 C.ar    
  10 C10            2.1567    -6.7361    -0.2454 C.ar    
  11 C11            0.8946    -6.1787    -0.3484 C.ar    
  12 C12            0.7443    -4.8081    -0.3952 C.ar    
  13 O13            2.6980    -1.7988    -0.3603 O.2     
  14 N14            0.4884    -1.9682    -0.5055 N.am    
  15 C15            2.3129    -8.2340    -0.1893 C.3     
  16 C16            2.0211    -8.7244     1.2303 C.3     
  17 C17            2.3002   -10.2262     1.3185 C.3     
  18 C18            2.0084   -10.7166     2.7380 C.3     
  19 O19            1.3968    -8.8429    -1.1014 O.3     
  20 C20            1.8059    -9.9833    -1.7178 C.ar    
  21 C21            3.0872   -10.4689    -1.4988 C.ar    
  22 C22            3.5031   -11.6269    -2.1245 C.ar    
  23 C23            2.6389   -12.3062    -2.9730 C.ar    
  24 C24            1.3571   -11.8203    -3.1914 C.ar    
  25 C25            0.9403   -10.6644    -2.5612 C.ar    
  26 N26            3.0613   -13.4829    -3.6095 N.pl3   
  27 N27            3.7258   -14.5560    -3.0019 N.2     
  28 C28            3.9536   -15.4660    -3.9148 C.2     
  29 C29            3.4423   -15.0030    -5.1318 C.2     
  30 C30            2.8938   -13.7845    -4.9167 C.2     
  31 C31            3.4883   -15.7345    -6.4485 C.3     
  32 F32            4.1275   -16.9669    -6.2752 F       
  33 F33            2.1847   -15.9462    -6.9102 F       
  34 F34            4.1954   -14.9697    -7.3825 F       
  35 C35            4.8950   -12.1536    -1.8873 C.3     
  36 H36           -1.6803    -0.5464     0.1957 H       
  37 H37           -1.5595    -0.6008    -1.5793 H       
  38 H38            0.8692    -0.1238    -1.4286 H       
  39 H39            0.7483    -0.0694     0.3465 H       
  40 H40           -2.5765     2.8487    -0.8671 H       
  41 H41            4.0146    -3.9202    -0.2064 H       
  42 H42            4.2584    -6.3659    -0.1137 H       
  43 H43            0.0249    -6.8178    -0.3880 H       
  44 H44           -0.2418    -4.3741    -0.4711 H       
  45 H45           -0.2949    -2.5392    -0.5413 H       
  46 H46            3.3326    -8.5034    -0.4644 H       
  47 H47            2.6600    -8.1941     1.9364 H       
  48 H48            0.9756    -8.5343     1.4726 H       
  49 H49            1.6613   -10.7565     0.6123 H       
  50 H50            3.3457   -10.4163     1.0761 H       
  51 H51            2.6473   -10.1862     3.4442 H       
  52 H52            0.9628   -10.5265     2.9804 H       
  53 H53            2.2072   -11.7865     2.8009 H       
  54 H54            3.7593    -9.9405    -0.8389 H       
  55 H55            0.6846   -12.3481    -3.8515 H       
  56 H56           -0.0583   -10.2886    -2.7279 H       
  57 H57            4.4509   -16.4114    -3.7558 H       
  58 H58            2.4115   -13.1634    -5.6570 H       
  59 H59            4.8989   -12.7818    -0.9966 H       
  60 H60            5.2125   -12.7419    -2.7482 H       
  61 H61            5.5804   -11.3180    -1.7455 H       
@<TRIPOS>BOND
   1    1    2 1
   2    1    4 2
   3    1    5 1
   4    2    3 1
   5    2   36 1
   6    2   37 1
   7    3   14 1
   8    3   38 1
   9    3   39 1
  10    5   40 1
  11    6    7 1
  12    6   13 2
  13    6   14 am
  14    7    8 ar
  15    7   12 ar
  16    8    9 ar
  17    8   41 1
  18    9   10 ar
  19    9   42 1
  20   10   11 ar
  21   10   15 1
  22   11   12 ar
  23   11   43 1
  24   12   44 1
  25   14   45 1
  26   15   16 1
  27   15   19 1
  28   15   46 1
  29   16   17 1
  30   16   47 1
  31   16   48 1
  32   17   18 1
  33   17   49 1
  34   17   50 1
  35   18   51 1
  36   18   52 1
  37   18   53 1
  38   19   20 1
  39   20   21 ar
  40   20   25 ar
  41   21   22 ar
  42   21   54 1
  43   22   23 ar
  44   22   35 1
  45   23   24 ar
  46   23   26 1
  47   24   25 ar
  48   24   55 1
  49   25   56 1
  50   26   27 1
  51   26   30 1
  52   27   28 2
  53   28   29 1
  54   28   57 1
  55   29   30 2
  56   29   31 1
  57   30   58 1
  58   31   32 1
  59   31   33 1
  60   31   34 1
  61   35   59 1
  62   35   60 1
  63   35   61 1

#	End of record

