#	Name: ASD01912427
#	Creating user name:	WinNT
#	Creation time:	15. 06. 2019 19:59

#	Modifying user name:	WinNT
#	Modification time:	15. 06. 2019 19:59

#	Program:	/corina/corina34_cracker 3.40 0067  02.08.2006

@<TRIPOS>MOLECULE
ASD01912427
  46   48    0    0    0
SMALL
NO_CHARGES


@<TRIPOS>ATOM
   1 C1            -0.3202     0.5434    -1.6324 C.1     
   2 C2            -0.1768     1.6988    -0.7985 C.ar    
   3 C3             1.0191     2.4257    -0.7875 C.ar    
   4 C4             1.1069     3.5344     0.0359 C.ar    
   5 C5             0.0222     3.8904     0.8172 C.ar    
   6 N6            -1.0964     3.1923     0.7927 N.ar    
   7 C7            -1.2366     2.1269     0.0194 C.ar    
   8 N8            -0.4338    -0.3731    -2.2938 N.1     
   9 N9            -2.4310     1.4278     0.0207 N.3     
  10 C10           -3.5744     2.3397     0.1506 C.3     
  11 C11           -4.8741     1.5649    -0.0952 C.3     
  12 C12           -4.8958     0.3688     0.8333 C.2     
  13 C13           -3.6608    -0.5060     0.8863 C.3     
  14 C14           -2.4382     0.4004     1.0697 C.3     
  15 C15           -5.9660     0.0954     1.5793 C.2     
  16 C16           -5.9607    -1.0421     2.4493 C.1     
  17 C17           -5.9564    -1.9746     3.1625 C.1     
  18 C18           -5.9511    -3.1120     4.0325 C.ar    
  19 C19           -7.0796    -3.3913     4.8122 C.ar    
  20 C20           -7.0684    -4.4799     5.6418 C.ar    
  21 C21           -5.9172    -5.2817     5.6800 C.ar    
  22 C22           -4.8255    -4.9448     4.8745 C.ar    
  23 N23           -4.8748    -3.8942     4.0858 N.ar    
  24 C24           -5.8615    -6.4301     6.5337 C.1     
  25 N25           -5.8172    -7.3411     7.2110 N.1     
  26 C26            0.1208     5.0981     1.7133 C.3     
  27 C27           -1.0271     6.0601     1.4008 C.3     
  28 H28            1.8531     2.1285    -1.4060 H       
  29 H29            2.0155     4.1173     0.0686 H       
  30 H30           -3.5885     2.7643     1.1544 H       
  31 H31           -3.4850     3.1415    -0.5824 H       
  32 H32           -5.7299     2.2072     0.1127 H       
  33 H33           -4.9104     1.2270    -1.1309 H       
  34 H34           -3.7355    -1.1969     1.7260 H       
  35 H35           -3.5669    -1.0661    -0.0441 H       
  36 H36           -1.5291    -0.1969     0.9998 H       
  37 H37           -2.4843     0.8796     2.0476 H       
  38 H38           -6.8371     0.7317     1.5277 H       
  39 H39           -7.9500    -2.7541     4.7600 H       
  40 H40           -7.9263    -4.7164     6.2536 H       
  41 H41           -3.9350    -5.5555     4.8973 H       
  42 H42            0.0580     4.7836     2.7550 H       
  43 H43            1.0728     5.6006     1.5422 H       
  44 H44           -0.9642     6.3746     0.3590 H       
  45 H45           -1.9791     5.5575     1.5718 H       
  46 H46           -0.9558     6.9336     2.0489 H       
@<TRIPOS>BOND
   1    1    2 1
   2    1    8 3
   3    2    3 ar
   4    2    7 ar
   5    3    4 ar
   6    3   28 1
   7    4    5 ar
   8    4   29 1
   9    5    6 ar
  10    5   26 1
  11    6    7 ar
  12    7    9 1
  13    9   10 1
  14    9   14 1
  15   10   11 1
  16   10   30 1
  17   10   31 1
  18   11   12 1
  19   11   32 1
  20   11   33 1
  21   12   13 1
  22   12   15 2
  23   13   14 1
  24   13   34 1
  25   13   35 1
  26   14   36 1
  27   14   37 1
  28   15   16 1
  29   15   38 1
  30   16   17 3
  31   17   18 1
  32   18   19 ar
  33   18   23 ar
  34   19   20 ar
  35   19   39 1
  36   20   21 ar
  37   20   40 1
  38   21   22 ar
  39   21   24 1
  40   22   23 ar
  41   22   41 1
  42   24   25 3
  43   26   27 1
  44   26   42 1
  45   26   43 1
  46   27   44 1
  47   27   45 1
  48   27   46 1

#	End of record

