#	Name: ASD01910793
#	Creating user name:	WinNT
#	Creation time:	15. 06. 2019 19:56

#	Modifying user name:	WinNT
#	Modification time:	15. 06. 2019 19:56

#	Program:	/corina/corina34_cracker 3.40 0067  02.08.2006

@<TRIPOS>MOLECULE
ASD01910793
  56   59    0    0    0
SMALL
NO_CHARGES


@<TRIPOS>ATOM
   1 C1             0.0621     1.7747    -0.3852 C.ar    
   2 C2             0.0025     0.3880    -0.4155 C.ar    
   3 C3             1.1871    -0.3250    -0.3675 C.ar    
   4 C4             2.3909     0.3677    -0.2910 C.ar    
   5 N5             2.4060     1.6916    -0.2638 N.ar    
   6 C6             1.2921     2.3973    -0.3087 C.ar    
   7 N7             3.5887    -0.3360    -0.2422 N.3     
   8 C8             4.7345     0.5799    -0.1643 C.3     
   9 C9             6.0152    -0.2284     0.0697 C.3     
  10 N10            6.1137    -1.2603    -0.9738 N.am    
  11 C11            4.9501    -2.1298    -1.2045 C.3     
  12 C12            3.7113    -1.2467    -1.3883 C.3     
  13 C13            7.2404    -1.4055    -1.6989 C.2     
  14 C14            7.3644    -2.5244    -2.6541 C.ar    
  15 O15            8.1547    -0.6151    -1.5665 O.2     
  16 C16            7.9782    -2.3208    -3.8938 C.ar    
  17 C17            8.0966    -3.3618    -4.7892 C.ar    
  18 C18            7.6078    -4.6195    -4.4676 C.ar    
  19 C19            6.9897    -4.8363    -3.2253 C.ar    
  20 C20            6.8745    -3.7859    -2.3179 C.ar    
  21 C21            6.4838    -6.1336    -2.8909 C.1     
  22 C22            6.0691    -7.1972    -2.6168 C.1     
  23 C23            5.5633    -8.4944    -2.2824 C.ar    
  24 C24            4.9481    -8.7110    -1.0465 C.ar    
  25 C25            4.4629    -9.9631    -0.7316 C.ar    
  26 C26            4.5844   -11.0035    -1.6359 C.ar    
  27 C27            5.1928   -10.7966    -2.8614 C.ar    
  28 C28            5.6772    -9.5485    -3.1927 C.ar    
  29 O29            7.7264    -5.6400    -5.3532 O.3     
  30 C30            8.3655    -5.3480    -6.5976 C.3     
  31 C31           -1.3228    -0.3246    -0.4983 C.3     
  32 H32           -0.8442     2.3607    -0.4256 H       
  33 H33            1.1773    -1.4047    -0.3888 H       
  34 H34            1.3430     3.4758    -0.2845 H       
  35 H35            4.8204     1.1352    -1.0983 H       
  36 H36            4.5880     1.2764     0.6613 H       
  37 H37            6.8804     0.4323     0.0140 H       
  38 H38            5.9752    -0.7021     1.0505 H       
  39 H39            5.1110    -2.7263    -2.1025 H       
  40 H40            4.8076    -2.7863    -0.3461 H       
  41 H41            2.8227    -1.8749    -1.4504 H       
  42 H42            3.8114    -0.6659    -2.3052 H       
  43 H43            8.3607    -1.3440    -4.1508 H       
  44 H44            8.5715    -3.1976    -5.7452 H       
  45 H45            6.4006    -3.9460    -1.3607 H       
  46 H46            4.8532    -7.9001    -0.3395 H       
  47 H47            3.9872   -10.1320     0.2232 H       
  48 H48            4.2029   -11.9819    -1.3837 H       
  49 H49            5.2848   -11.6135    -3.5619 H       
  50 H50            6.1518    -9.3885    -4.1496 H       
  51 H51            7.8070    -4.5709    -7.1193 H       
  52 H52            9.3822    -5.0021    -6.4115 H       
  53 H53            8.3947    -6.2485    -7.2111 H       
  54 H54           -1.5890    -0.4763    -1.5443 H       
  55 H55           -1.2478    -1.2905     0.0013 H       
  56 H56           -2.0901     0.2775    -0.0117 H       
@<TRIPOS>BOND
   1    1    2 ar
   2    1    6 ar
   3    1   32 1
   4    2    3 ar
   5    2   31 1
   6    3    4 ar
   7    3   33 1
   8    4    5 ar
   9    4    7 1
  10    5    6 ar
  11    6   34 1
  12    7    8 1
  13    7   12 1
  14    8    9 1
  15    8   35 1
  16    8   36 1
  17    9   10 1
  18    9   37 1
  19    9   38 1
  20   10   11 1
  21   10   13 am
  22   11   12 1
  23   11   39 1
  24   11   40 1
  25   12   41 1
  26   12   42 1
  27   13   14 1
  28   13   15 2
  29   14   16 ar
  30   14   20 ar
  31   16   17 ar
  32   16   43 1
  33   17   18 ar
  34   17   44 1
  35   18   19 ar
  36   18   29 1
  37   19   20 ar
  38   19   21 1
  39   20   45 1
  40   21   22 3
  41   22   23 1
  42   23   24 ar
  43   23   28 ar
  44   24   25 ar
  45   24   46 1
  46   25   26 ar
  47   25   47 1
  48   26   27 ar
  49   26   48 1
  50   27   28 ar
  51   27   49 1
  52   28   50 1
  53   29   30 1
  54   30   51 1
  55   30   52 1
  56   30   53 1
  57   31   54 1
  58   31   55 1
  59   31   56 1

#	End of record

