#	Name: ASD01208656
#	Creating user name:	WinNT
#	Creation time:	15. 06. 2019 19:10

#	Modifying user name:	WinNT
#	Modification time:	15. 06. 2019 19:10

#	Program:	/corina/corina34_cracker 3.40 0067  02.08.2006

@<TRIPOS>MOLECULE
ASD01208656
  11   11    0    0    0
SMALL
NO_CHARGES


@<TRIPOS>ATOM
   1 C1            -0.0168     1.3893     0.0097 C.ar    
   2 C2             0.0021    -0.0041     0.0020 C.ar    
   3 N3             1.1255     2.0650     0.0024 N.ar    
   4 N4             1.1545    -0.6461    -0.0124 N.ar    
   5 C5             2.2914     0.0316    -0.0196 C.ar    
   6 C6             2.2765     1.4142    -0.0121 C.ar    
   7 S7            -1.5532     2.2519     0.0217 S.3     
   8 Br8            3.9404    -0.8936    -0.0397 Br      
   9 H9            -0.9253    -0.5575     0.0083 H       
  10 H10            3.2064     1.9635    -0.0184 H       
  11 H11           -1.8108     2.3928     1.3342 H       
@<TRIPOS>BOND
   1    1    2 ar
   2    1    3 ar
   3    1    7 1
   4    2    4 ar
   5    2    9 1
   6    3    6 ar
   7    4    5 ar
   8    5    6 ar
   9    5    8 1
  10    6   10 1
  11    7   11 1

#	End of record

