#	Name: ASD01150421
#	Creating user name:	WinNT
#	Creation time:	15. 06. 2019 19:04

#	Modifying user name:	WinNT
#	Modification time:	15. 06. 2019 19:04

#	Program:	/corina/corina34_cracker 3.40 0067  02.08.2006

@<TRIPOS>MOLECULE
ASD01150421
  48   50    0    0    0
SMALL
NO_CHARGES


@<TRIPOS>ATOM
   1 C1             2.0699     1.2053     0.9469 C.ar    
   2 C2             2.0529    -0.1511     0.6863 C.ar    
   3 C3             1.2125    -0.6606    -0.2851 C.ar    
   4 C4             0.3817     0.1903    -1.0030 C.ar    
   5 C5             0.3959     1.5533    -0.7435 C.ar    
   6 C6             1.2409     2.0620     0.2326 C.ar    
   7 N7             1.2579     3.4357     0.4977 N.am    
   8 C8             0.0974     4.0898     0.6805 C.2     
   9 N9             0.0769     5.4110     0.9373 N.am    
  10 C10            1.2329     6.1024     1.0151 C.2     
  11 C11            2.5057     5.3926     0.8166 C.2     
  12 N12            2.4832     4.1084     0.5745 N.2     
  13 O13            1.2226     7.2972     1.2460 O.2     
  14 C14           -1.2018     6.0990     1.1319 C.3     
  15 O15           -0.9512     3.4776     0.6124 O.2     
  16 C16           -1.5733     6.0651     2.5919 C.ar    
  17 C17           -1.1622     7.0818     3.4335 C.ar    
  18 C18           -1.5030     7.0508     4.7728 C.ar    
  19 C19           -2.2552     6.0032     5.2705 C.ar    
  20 C20           -2.6671     4.9870     4.4288 C.ar    
  21 C21           -2.3300     5.0203     3.0886 C.ar    
  22 N22           -0.4683    -0.3265    -1.9871 N.am    
  23 C23           -1.0411    -1.5345    -1.8162 C.2     
  24 O24           -0.7540    -2.2107    -0.8511 O.2     
  25 C25           -2.0382    -2.0450    -2.8242 C.3     
  26 O26            3.6865     6.0604     0.8887 O.3     
  27 C27            4.8771     5.2972     0.6838 C.3     
  28 C28           -2.6258     5.9689     6.7308 C.3     
  29 F29           -3.8464     6.6265     6.9178 F       
  30 F30           -2.7431     4.6396     7.1510 F       
  31 F31           -1.6320     6.6086     7.4794 F       
  32 H32            2.7249     1.5999     1.7096 H       
  33 H33            2.6981    -0.8148     1.2427 H       
  34 H34            1.2019    -1.7216    -0.4867 H       
  35 H35           -0.2489     2.2169    -1.3005 H       
  36 H36           -1.1109     7.1345     0.8040 H       
  37 H37           -1.9754     5.5997     0.5484 H       
  38 H38           -0.5745     7.9003     3.0446 H       
  39 H39           -1.1812     7.8447     5.4304 H       
  40 H40           -3.2545     4.1684     4.8177 H       
  41 H41           -2.6518     4.2263     2.4309 H       
  42 H42           -0.6452     0.1846    -2.7923 H       
  43 H43           -1.5625    -2.1152    -3.8024 H       
  44 H44           -2.3904    -3.0306    -2.5199 H       
  45 H45           -2.8830    -1.3584    -2.8794 H       
  46 H46            5.7460     5.9498     0.7680 H       
  47 H47            4.9387     4.5111     1.4364 H       
  48 H48            4.8546     4.8484    -0.3093 H       
@<TRIPOS>BOND
   1    1    2 ar
   2    1    6 ar
   3    1   32 1
   4    2    3 ar
   5    2   33 1
   6    3    4 ar
   7    3   34 1
   8    4    5 ar
   9    4   22 1
  10    5    6 ar
  11    5   35 1
  12    6    7 1
  13    7    8 am
  14    7   12 1
  15    8    9 am
  16    8   15 2
  17    9   10 am
  18    9   14 1
  19   10   11 1
  20   10   13 2
  21   11   12 2
  22   11   26 1
  23   14   16 1
  24   14   36 1
  25   14   37 1
  26   16   17 ar
  27   16   21 ar
  28   17   18 ar
  29   17   38 1
  30   18   19 ar
  31   18   39 1
  32   19   20 ar
  33   19   28 1
  34   20   21 ar
  35   20   40 1
  36   21   41 1
  37   22   23 am
  38   22   42 1
  39   23   24 2
  40   23   25 1
  41   25   43 1
  42   25   44 1
  43   25   45 1
  44   26   27 1
  45   27   46 1
  46   27   47 1
  47   27   48 1
  48   28   29 1
  49   28   30 1
  50   28   31 1

#	End of record

