#	Name: ASD04880303
#	Creating user name:	WinNT
#	Creation time:	15. 06. 2019 20:53

#	Modifying user name:	WinNT
#	Modification time:	15. 06. 2019 20:53

#	Program:	/corina/corina34_cracker 3.40 0067  02.08.2006

@<TRIPOS>MOLECULE
ASD04880303
  41   43    0    0    0
SMALL
NO_CHARGES


@<TRIPOS>ATOM
   1 N1            -0.0179     1.2849     0.1012 N.2     
   2 C2            -0.0031     0.0005     0.1222 C.2     
   3 C3             1.4261    -0.4903     0.0700 C.3     
   4 C4             2.2608     0.8046     0.0128 C.3     
   5 N5             1.2453     1.8695     0.0379 N.am    
   6 C6             1.4961     3.1933     0.0049 C.2     
   7 C7             0.3778     4.1553    -0.0903 C.ar    
   8 C8             0.6209     5.5253     0.0191 C.ar    
   9 C9            -0.4265     6.4191    -0.0709 C.ar    
  10 C10           -1.7162     5.9610    -0.2692 C.ar    
  11 C11           -1.9659     4.6021    -0.3784 C.ar    
  12 C12           -0.9247     3.6976    -0.2957 C.ar    
  13 O13            2.6427     3.5964     0.0535 O.2     
  14 F14           -3.2283     4.1615    -0.5716 F       
  15 N15           -1.1220    -0.8087     0.1837 N.pl3   
  16 C16           -2.4579    -0.2091     0.2301 C.3     
  17 C17           -3.4961    -1.2997     0.2930 C.ar    
  18 C18           -3.9215    -1.7793     1.5179 C.ar    
  19 C19           -4.8736    -2.7796     1.5756 C.ar    
  20 C20           -5.4009    -3.3001     0.4083 C.ar    
  21 C21           -4.9763    -2.8200    -0.8162 C.ar    
  22 C22           -4.0271    -1.8164    -0.8738 C.ar    
  23 C23           -5.3366    -3.3031     2.9107 C.3     
  24 H24            1.6673    -1.0615     0.9664 H       
  25 H25            1.5914    -1.0917    -0.8239 H       
  26 H26            2.9154     0.8779     0.8813 H       
  27 H27            2.8395     0.8477    -0.9099 H       
  28 H28            1.6272     5.8853     0.1743 H       
  29 H29           -0.2386     7.4793     0.0140 H       
  30 H30           -2.5323     6.6650    -0.3390 H       
  31 H31           -1.1187     2.6389    -0.3852 H       
  32 H32           -1.0228    -1.7735     0.1961 H       
  33 H33           -2.5417     0.4236     1.1137 H       
  34 H34           -2.6172     0.3931    -0.6644 H       
  35 H35           -3.5096    -1.3727     2.4297 H       
  36 H36           -6.1444    -4.0822     0.4533 H       
  37 H37           -5.3880    -3.2268    -1.7280 H       
  38 H38           -3.6980    -1.4386    -1.8305 H       
  39 H39           -6.1918    -2.7203     3.2528 H       
  40 H40           -5.6264    -4.3490     2.8102 H       
  41 H41           -4.5263    -3.2186     3.6349 H       
@<TRIPOS>BOND
   1    1    2 2
   2    1    5 1
   3    2    3 1
   4    2   15 1
   5    3    4 1
   6    3   24 1
   7    3   25 1
   8    4    5 1
   9    4   26 1
  10    4   27 1
  11    5    6 am
  12    6    7 1
  13    6   13 2
  14    7    8 ar
  15    7   12 ar
  16    8    9 ar
  17    8   28 1
  18    9   10 ar
  19    9   29 1
  20   10   11 ar
  21   10   30 1
  22   11   12 ar
  23   11   14 1
  24   12   31 1
  25   15   16 1
  26   15   32 1
  27   16   17 1
  28   16   33 1
  29   16   34 1
  30   17   18 ar
  31   17   22 ar
  32   18   19 ar
  33   18   35 1
  34   19   20 ar
  35   19   23 1
  36   20   21 ar
  37   20   36 1
  38   21   22 ar
  39   21   37 1
  40   22   38 1
  41   23   39 1
  42   23   40 1
  43   23   41 1

#	End of record

