#	Name: ASD05143257
#	Creating user name:	WinNT
#	Creation time:	15. 06. 2019 20:57

#	Modifying user name:	WinNT
#	Modification time:	15. 06. 2019 20:57

#	Program:	/corina/corina34_cracker 3.40 0067  02.08.2006

@<TRIPOS>MOLECULE
ASD05143257
  48   50    0    0    0
SMALL
NO_CHARGES


@<TRIPOS>ATOM
   1 C1            -0.4356     1.4748     0.2130 C.2     
   2 N2            -0.1014     0.2559    -0.1622 N.2     
   3 S3            -1.5640    -0.5953    -0.3167 S.3     
   4 C4            -2.5543     0.7399     0.1340 C.2     
   5 N5            -1.7195     1.7273     0.3737 N.2     
   6 N6            -3.9331     0.7664     0.2287 N.pl3   
   7 C7            -4.5778     1.8982     0.7419 C.ar    
   8 C8            -5.8867     2.1794     0.3727 C.ar    
   9 C9            -6.5221     3.2957     0.8797 C.ar    
  10 C10           -5.8532     4.1363     1.7573 C.ar    
  11 C11           -4.5456     3.8565     2.1262 C.ar    
  12 C12           -3.9108     2.7372     1.6250 C.ar    
  13 C13            1.1642    -0.2252    -0.3827 C.ar    
  14 C14            1.9889     0.3806    -1.3318 C.ar    
  15 C15            1.6350    -1.3194     0.3455 C.ar    
  16 C16            2.9088    -1.7978     0.1193 C.ar    
  17 C17            3.7196    -1.1955    -0.8267 C.ar    
  18 C18            3.2610    -0.1080    -1.5483 C.ar    
  19 C19            0.5906     2.5167     0.4506 C.ar    
  20 C20            0.3036     3.8553     0.1850 C.ar    
  21 C21            1.8453     2.1634     0.9461 C.ar    
  22 C22            2.7968     3.1383     1.1657 C.ar    
  23 C23            2.5078     4.4641     0.8958 C.ar    
  24 C24            1.2633     4.8213     0.4087 C.ar    
  25 C25            0.7538    -1.9759     1.3767 C.3     
  26 O26           -6.4795     5.2357     2.2558 O.3     
  27 C27           -5.7311     6.0571     3.1542 C.3     
  28 H28           -4.4539     0.0008    -0.0604 H       
  29 H29           -6.4074     1.5254    -0.3111 H       
  30 H30           -7.5400     3.5145     0.5927 H       
  31 H31           -4.0254     4.5117     2.8093 H       
  32 H32           -2.8929     2.5192     1.9126 H       
  33 H33            1.6320     1.2297    -1.8958 H       
  34 H34            3.2742    -2.6442     0.6819 H       
  35 H35            4.7164    -1.5736    -0.9995 H       
  36 H36            3.8988     0.3576    -2.2850 H       
  37 H37           -0.6677     4.1353    -0.1953 H       
  38 H38            2.0718     1.1288     1.1578 H       
  39 H39            3.7689     2.8660     1.5494 H       
  40 H40            3.2556     5.2237     1.0696 H       
  41 H41            1.0435     5.8578     0.1998 H       
  42 H42            0.2334    -2.8205     0.9252 H       
  43 H43            1.3662    -2.3281     2.2068 H       
  44 H44            0.0244    -1.2540     1.7440 H       
  45 H45           -5.4353     5.4693     4.0232 H       
  46 H46           -4.8409     6.4312     2.6486 H       
  47 H47           -6.3462     6.8973     3.4763 H       
  48 Br48           9.7164    11.8973     9.0232 Br      
@<TRIPOS>BOND
   1    1    2 2
   2    1   19 1
   3    1    5 1
   4    2    3 1
   5    2   13 1
   6    3    4 1
   7    4    5 2
   8    4    6 1
   9    6    7 1
  10    6   28 1
  11    7    8 ar
  12    7   12 ar
  13    8    9 ar
  14    8   29 1
  15    9   10 ar
  16    9   30 1
  17   10   11 ar
  18   10   26 1
  19   11   12 ar
  20   11   31 1
  21   12   32 1
  22   13   14 ar
  23   13   15 ar
  24   14   18 ar
  25   14   33 1
  26   15   16 ar
  27   15   25 1
  28   16   17 ar
  29   16   34 1
  30   17   18 ar
  31   17   35 1
  32   18   36 1
  33   19   20 ar
  34   19   21 ar
  35   20   24 ar
  36   20   37 1
  37   21   22 ar
  38   21   38 1
  39   22   23 ar
  40   22   39 1
  41   23   24 ar
  42   23   40 1
  43   24   41 1
  44   25   42 1
  45   25   43 1
  46   25   44 1
  47   26   27 1
  48   27   45 1
  49   27   46 1
  50   27   47 1

#	End of record

