#	Name: ASD03331444
#	Creating user name:	WinNT
#	Creation time:	15. 06. 2019 20:39

#	Modifying user name:	WinNT
#	Modification time:	15. 06. 2019 20:39

#	Program:	/corina/corina34_cracker 3.40 0067  02.08.2006

@<TRIPOS>MOLECULE
ASD03331444
  73   77    0    0    0
SMALL
NO_CHARGES


@<TRIPOS>ATOM
   1 N1            -0.3504     1.1928    -1.3922 N.am    
   2 C2            -0.6323    -0.1683    -1.8680 C.3     
   3 C3            -1.4256    -0.0792    -3.1755 C.3     
   4 C4            -0.6584     0.7896    -4.1748 C.3     
   5 C5            -0.5001     2.2026    -3.6086 C.3     
   6 C6             0.3037     2.1393    -2.3061 C.3     
   7 C7             0.7029     0.1911    -4.4189 C.2     
   8 O8             1.6563     0.9139    -4.6181 O.2     
   9 N9             0.8610    -1.1473    -4.4158 N.am    
  10 N10           -1.4003     0.8502    -5.4413 N.3     
  11 C11           -0.6753     1.6564    -6.4404 C.3     
  12 C12           -0.4548     0.7610    -7.6777 C.3     
  13 C13           -1.5620    -0.3158    -7.5316 C.3     
  14 C14           -1.6149    -0.5038    -5.9949 C.3     
  15 F15           -0.6301     1.4940    -8.8563 F       
  16 F16            0.8143     0.1733    -7.6432 F       
  17 C17           -0.6904     1.5678    -0.1431 C.2     
  18 O18           -1.3197     0.8093     0.5695 O.2     
  19 N19           -0.3697     4.8877     1.3246 N.pl3   
  20 C20           -1.1046     3.7843     1.0398 C.2     
  21 C21           -0.2997     2.8963     0.3590 C.2     
  22 C22            0.9768     3.5039     0.2339 C.2     
  23 C23            0.9036     4.7196     0.8332 C.2     
  24 C24           -2.5505     3.5667     1.4044 C.3     
  25 C25           -3.4446     4.0856     0.2765 C.3     
  26 C26           -4.9126     3.8646     0.6466 C.3     
  27 O27           -5.7476     4.3492    -0.4069 O.3     
  28 C28           -0.8352     6.0207     2.0056 C.ar    
  29 C29           -0.3549     6.3154     3.2745 C.ar    
  30 C30           -0.8147     7.4328     3.9434 C.ar    
  31 C31           -1.7538     8.2581     3.3500 C.ar    
  32 C32           -2.2344     7.9662     2.0855 C.ar    
  33 C33           -1.7731     6.8534     1.4101 C.ar    
  34 Cl34          -2.3304     9.6616     4.1936 Cl      
  35 C35            2.0069     5.6986     0.9394 C.ar    
  36 C36            3.2534     5.2998     1.4275 C.ar    
  37 C37            4.2793     6.2181     1.5244 C.ar    
  38 C38            4.0739     7.5330     1.1383 C.ar    
  39 C39            2.8391     7.9334     0.6539 C.ar    
  40 C40            1.8084     7.0226     0.5470 C.ar    
  41 F41            5.0814     8.4279     1.2350 F       
  42 Cl42           3.5115     3.6528     1.9119 Cl      
  43 H43            0.3054    -0.6952    -2.0448 H       
  44 H44           -1.2187    -0.7026    -1.1205 H       
  45 H45           -1.5584    -1.0788    -3.5894 H       
  46 H46           -2.4009     0.3664    -2.9796 H       
  47 H47            0.0259     2.8271    -4.3307 H       
  48 H48           -1.4841     2.6268    -3.4087 H       
  49 H49            0.3349     3.1277    -1.8475 H       
  50 H50            1.3177     1.8007    -2.5185 H       
  51 H51            0.0893    -1.7266    -4.3168 H       
  52 H52            1.7465    -1.5313    -4.5127 H       
  53 H53           -1.2690     2.5284    -6.7147 H       
  54 H54            0.2860     1.9722    -6.0351 H       
  55 H55           -2.5153     0.0500    -7.9132 H       
  56 H56           -1.2739    -1.2421    -8.0286 H       
  57 H57           -0.8229    -1.1775    -5.6676 H       
  58 H58           -2.5894    -0.8873    -5.6928 H       
  59 H59            1.8446     3.0784    -0.2482 H       
  60 H60           -2.7319     2.5020     1.5513 H       
  61 H61           -2.7780     4.1044     2.3249 H       
  62 H62           -3.2632     5.1503     0.1296 H       
  63 H63           -3.2171     3.5479    -0.6440 H       
  64 H64           -5.0940     2.7999     0.7935 H       
  65 H65           -5.1401     4.4023     1.5671 H       
  66 H66           -6.6939     4.2414    -0.2399 H       
  67 H67            0.3775     5.6712     3.7383 H       
  68 H68           -0.4414     7.6625     4.9304 H       
  69 H69           -2.9678     8.6115     1.6249 H       
  70 H70           -2.1452     6.6285     0.4215 H       
  71 H71            5.2436     5.9114     1.9019 H       
  72 H72            2.6846     8.9596     0.3548 H       
  73 H73            0.8479     7.3352     0.1647 H       
@<TRIPOS>BOND
   1    1    2 1
   2    1    6 1
   3    1   17 am
   4    2    3 1
   5    2   43 1
   6    2   44 1
   7    3    4 1
   8    3   45 1
   9    3   46 1
  10    4    5 1
  11    4    7 1
  12    4   10 1
  13    5    6 1
  14    5   47 1
  15    5   48 1
  16    6   49 1
  17    6   50 1
  18    7    8 2
  19    7    9 am
  20    9   51 1
  21    9   52 1
  22   10   11 1
  23   10   14 1
  24   11   12 1
  25   11   53 1
  26   11   54 1
  27   12   13 1
  28   12   15 1
  29   12   16 1
  30   13   14 1
  31   13   55 1
  32   13   56 1
  33   14   57 1
  34   14   58 1
  35   17   18 2
  36   17   21 1
  37   19   20 1
  38   19   23 1
  39   19   28 1
  40   20   21 2
  41   20   24 1
  42   21   22 1
  43   22   23 2
  44   22   59 1
  45   23   35 1
  46   24   25 1
  47   24   60 1
  48   24   61 1
  49   25   26 1
  50   25   62 1
  51   25   63 1
  52   26   27 1
  53   26   64 1
  54   26   65 1
  55   27   66 1
  56   28   29 ar
  57   28   33 ar
  58   29   30 ar
  59   29   67 1
  60   30   31 ar
  61   30   68 1
  62   31   32 ar
  63   31   34 1
  64   32   33 ar
  65   32   69 1
  66   33   70 1
  67   35   36 ar
  68   35   40 ar
  69   36   37 ar
  70   36   42 1
  71   37   38 ar
  72   37   71 1
  73   38   39 ar
  74   38   41 1
  75   39   40 ar
  76   39   72 1
  77   40   73 1

#	End of record

