#	Name: ASD01410028
#	Creating user name:	WinNT
#	Creation time:	15. 06. 2019 19:16

#	Modifying user name:	WinNT
#	Modification time:	15. 06. 2019 19:16

#	Program:	/corina/corina34_cracker 3.40 0067  02.08.2006

@<TRIPOS>MOLECULE
ASD01410028
  36   37    0    0    0
SMALL
NO_CHARGES


@<TRIPOS>ATOM
   1 C1             0.0003     1.4991     0.3904 C.ar    
   2 C2             0.0122     0.1512     0.0780 C.ar    
   3 C3            -1.1774    -0.5374    -0.0597 C.ar    
   4 C4            -2.3845     0.1234     0.1153 C.ar    
   5 C5            -2.3944     1.4748     0.4285 C.ar    
   6 C6            -1.2026     2.1587     0.5706 C.ar    
   7 O7            -3.5561    -0.5523    -0.0202 O.3     
   8 C8            -4.7596     0.2145     0.0539 C.3     
   9 C9            -5.8556    -0.4970    -0.6969 C.2     
  10 N10           -7.0592     0.0901    -0.8489 N.am    
  11 C11           -8.0334    -0.5134    -1.6401 C.ar    
  12 C12           -7.6638    -1.3113    -2.7142 C.ar    
  13 C13           -8.6312    -1.9087    -3.4974 C.ar    
  14 C14           -9.9750    -1.7176    -3.2198 C.ar    
  15 C15          -10.3611    -0.9287    -2.1577 C.ar    
  16 C16           -9.3938    -0.3226    -1.3522 C.ar    
  17 C17           -9.7995     0.5218    -0.2144 C.2     
  18 O18          -11.1063     0.6847     0.0716 O.3     
  19 O19           -8.9557     1.0712     0.4658 O.2     
  20 O20           -5.6545    -1.5978    -1.1644 O.2     
  21 Cl21           1.4966     2.3621     0.5636 Cl      
  22 H22           -4.5930     1.1960    -0.3901 H       
  23 C23           -5.1693     0.3802     1.5187 C.3     
  24 H24            0.9522    -0.3628    -0.0585 H       
  25 H25           -1.1677    -1.5894    -0.3039 H       
  26 H26           -3.3332     1.9909     0.5651 H       
  27 H27           -1.2099     3.2107     0.8147 H       
  28 H28           -7.2469     0.9330    -0.4071 H       
  29 H29           -6.6184    -1.4647    -2.9376 H       
  30 H30           -8.3386    -2.5286    -4.3319 H       
  31 H31          -10.7238    -2.1888    -3.8392 H       
  32 H32          -11.4100    -0.7827    -1.9459 H       
  33 H33          -11.3235     1.2476     0.8272 H       
  34 H34           -6.0874     0.9651     1.5752 H       
  35 H35           -5.3359    -0.6012     1.9626 H       
  36 H36           -4.3766     0.8948     2.0617 H       
@<TRIPOS>BOND
   1    1    2 ar
   2    1   21 1
   3    1    6 ar
   4    2    3 ar
   5    2   24 1
   6    3    4 ar
   7    3   25 1
   8    4    5 ar
   9    4    7 1
  10    5    6 ar
  11    5   26 1
  12    6   27 1
  13    7    8 1
  14    8    9 1
  15    8   22 1
  16    8   23 1
  17    9   10 am
  18    9   20 2
  19   10   11 1
  20   10   28 1
  21   11   12 ar
  22   11   16 ar
  23   12   13 ar
  24   12   29 1
  25   13   14 ar
  26   13   30 1
  27   14   15 ar
  28   14   31 1
  29   15   16 ar
  30   15   32 1
  31   16   17 1
  32   17   18 1
  33   17   19 2
  34   18   33 1
  35   23   34 1
  36   23   35 1
  37   23   36 1

#	End of record

