#	Name: ASD07300658
#	Creating user name:	WinNT
#	Creation time:	15. 06. 2019 21:10

#	Modifying user name:	WinNT
#	Modification time:	15. 06. 2019 21:10

#	Program:	/corina/corina34_cracker 3.40 0067  02.08.2006

@<TRIPOS>MOLECULE
ASD07300658
  30   32    0    0    0
SMALL
NO_CHARGES


@<TRIPOS>ATOM
   1 C1            -0.0035     1.3934     0.2412 C.2     
   2 C2             0.0021    -0.0041     0.0020 C.2     
   3 N3             1.1898     2.0695     0.2267 N.pl3   
   4 N4             1.1445    -0.6194    -0.2275 N.2     
   5 C5             2.3025     0.0491    -0.2395 C.2     
   6 C6             2.3476     1.3774    -0.0177 C.2     
   7 N7            -0.9640     2.2634     0.4998 N.2     
   8 C8            -0.4280     3.4757     0.6459 C.2     
   9 C9             0.9127     3.3769     0.4805 C.2     
  10 N10           -1.1857    -0.7180     0.0100 N.pl3   
  11 C11           -2.4812    -0.0317     0.1360 C.3     
  12 C12           -3.4036    -0.5308    -0.9821 C.3     
  13 O13           -3.4375    -1.9599    -0.9615 O.3     
  14 C14           -2.1739    -2.5790    -1.2141 C.3     
  15 C15           -1.1889    -2.1844    -0.1135 C.3     
  16 C16           -1.1862     4.7423     0.9492 C.3     
  17 H17            3.2205    -0.4866    -0.4310 H       
  18 H18            3.2948     1.8960    -0.0319 H       
  19 H19            1.6277     4.1841     0.5406 H       
  20 H20           -2.9240    -0.2585     1.1058 H       
  21 H21           -2.3374     1.0445     0.0402 H       
  22 H22           -4.4092    -0.1404    -0.8259 H       
  23 H23           -3.0253    -0.1895    -1.9457 H       
  24 H24           -2.2950    -3.6622    -1.2248 H       
  25 H25           -1.7912    -2.2451    -2.1785 H       
  26 H26           -0.1897    -2.5330    -0.3744 H       
  27 H27           -1.4994    -2.6316     0.8308 H       
  28 H28           -1.2536     4.8758     2.0289 H       
  29 H29           -0.6641     5.5923     0.5099 H       
  30 H30           -2.1893     4.6750     0.5280 H       
@<TRIPOS>BOND
   1    1    2 1
   2    1    3 1
   3    1    7 2
   4    2    4 2
   5    2   10 1
   6    3    6 1
   7    3    9 1
   8    4    5 1
   9    5    6 2
  10    5   17 1
  11    6   18 1
  12    7    8 1
  13    8    9 2
  14    8   16 1
  15    9   19 1
  16   10   11 1
  17   10   15 1
  18   11   12 1
  19   11   20 1
  20   11   21 1
  21   12   13 1
  22   12   22 1
  23   12   23 1
  24   13   14 1
  25   14   15 1
  26   14   24 1
  27   14   25 1
  28   15   26 1
  29   15   27 1
  30   16   28 1
  31   16   29 1
  32   16   30 1

#	End of record

