#	Name: ASD00170923
#	Creating user name:	WinNT
#	Creation time:	15. 06. 2019 18:32

#	Modifying user name:	WinNT
#	Modification time:	15. 06. 2019 18:32

#	Program:	/corina/corina34_cracker 3.40 0067  02.08.2006

@<TRIPOS>MOLECULE
ASD00170923
  52   55    0    0    0
SMALL
NO_CHARGES


@<TRIPOS>ATOM
   1 C1            -1.5883    -1.3531    -3.6453 C.ar    
   2 C2            -1.0544    -1.8418    -2.4644 C.ar    
   3 C3            -1.7255    -1.6594    -1.2736 C.ar    
   4 C4            -2.9454    -0.9807    -1.2600 C.ar    
   5 C5            -3.4785    -0.4904    -2.4535 C.ar    
   6 C6            -2.7956    -0.6743    -3.6373 C.ar    
   7 C7            -3.6703    -0.7823     0.0136 C.2     
   8 O8            -3.2535    -1.2931     1.0374 O.2     
   9 C9            -4.8881     0.0275     0.0435 C.2     
  10 C10           -6.2202    -0.5210    -0.1001 C.2     
  11 C11           -7.1716     0.3977    -0.0411 C.2     
  12 S12           -6.4862     1.9954     0.1951 S.3     
  13 C13           -4.8922     1.3922     0.2171 C.2     
  14 N14           -3.7615     2.1667     0.3795 N.pl3   
  15 C15           -6.4960    -1.9894    -0.2969 C.3     
  16 N16           -6.4267    -2.6786     0.9985 N.3     
  17 Cl17          -0.7373    -1.5860    -5.1404 Cl      
  18 C18           -6.9193    -4.0587     0.8878 C.3     
  19 C19           -6.7567    -4.7652     2.2357 C.3     
  20 N20           -7.4985    -4.0254     3.2663 N.3     
  21 C21           -7.0059    -2.6452     3.3769 C.3     
  22 C22           -7.1685    -1.9387     2.0290 C.3     
  23 C23           -7.4326    -4.6807     4.4980 C.ar    
  24 C24           -8.0714    -4.1426     5.6077 C.ar    
  25 C25           -8.0041    -4.7932     6.8243 C.ar    
  26 C26           -7.3019    -5.9788     6.9381 C.ar    
  27 C27           -6.6646    -6.5174     5.8350 C.ar    
  28 C28           -6.7326    -5.8751     4.6145 C.ar    
  29 N29           -8.6841    -4.2204     8.0075 N.pl3   
  30 O30           -9.3026    -3.1758     7.9081 O.2     
  31 O31           -8.6253    -4.7935     9.0806 O.2     
  32 H32           -0.1108    -2.3670    -2.4762 H       
  33 H33           -1.3085    -2.0413    -0.3535 H       
  34 H34           -4.4220     0.0351    -2.4491 H       
  35 H35           -3.2070    -0.2954    -4.5612 H       
  36 H36           -8.2283     0.1914    -0.1268 H       
  37 H37           -3.8362     3.1333     0.4118 H       
  38 H38           -2.8920     1.7445     0.4613 H       
  39 H39           -7.4905    -2.1182    -0.7242 H       
  40 H40           -5.7526    -2.4113    -0.9732 H       
  41 H41           -7.9726    -4.0475     0.6078 H       
  42 H42           -6.3462    -4.5895     0.1276 H       
  43 H43           -7.1481    -5.7800     2.1640 H       
  44 H44           -5.7005    -4.8005     2.5028 H       
  45 H45           -7.5790    -2.1145     4.1372 H       
  46 H46           -5.9526    -2.6564     3.6569 H       
  47 H47           -6.7771    -0.9240     2.1008 H       
  48 H48           -8.2247    -1.9035     1.7620 H       
  49 H49           -8.6198    -3.2164     5.5196 H       
  50 H50           -7.2506    -6.4853     7.8906 H       
  51 H51           -6.1167    -7.4434     5.9274 H       
  52 H52           -6.2348    -6.2962     3.7536 H       
@<TRIPOS>BOND
   1    1    2 ar
   2    1   17 1
   3    1    6 ar
   4    2    3 ar
   5    2   32 1
   6    3    4 ar
   7    3   33 1
   8    4    5 ar
   9    4    7 1
  10    5    6 ar
  11    5   34 1
  12    6   35 1
  13    7    8 2
  14    7    9 1
  15    9   10 1
  16    9   13 2
  17   10   11 2
  18   10   15 1
  19   11   12 1
  20   11   36 1
  21   12   13 1
  22   13   14 1
  23   14   37 1
  24   14   38 1
  25   15   16 1
  26   15   39 1
  27   15   40 1
  28   16   18 1
  29   16   22 1
  30   18   19 1
  31   18   41 1
  32   18   42 1
  33   19   20 1
  34   19   43 1
  35   19   44 1
  36   20   21 1
  37   20   23 1
  38   21   22 1
  39   21   45 1
  40   21   46 1
  41   22   47 1
  42   22   48 1
  43   23   24 ar
  44   23   28 ar
  45   24   25 ar
  46   24   49 1
  47   25   26 ar
  48   25   29 1
  49   26   27 ar
  50   26   50 1
  51   27   28 ar
  52   27   51 1
  53   28   52 1
  54   29   30 2
  55   29   31 2

#	End of record

