#	Name: ASD01918341
#	Creating user name:	WinNT
#	Creation time:	15. 06. 2019 20:11

#	Modifying user name:	WinNT
#	Modification time:	15. 06. 2019 20:11

#	Program:	/corina/corina34_cracker 3.40 0067  02.08.2006

@<TRIPOS>MOLECULE
ASD01918341
  45   49    0    0    0
SMALL
NO_CHARGES


@<TRIPOS>ATOM
   1 C1            -0.0167     1.3810     0.0096 C.ar    
   2 C2             0.0021    -0.0041     0.0020 C.ar    
   3 C3            -1.1834    -0.7163     0.0100 C.ar    
   4 C4            -2.3921    -0.0503     0.0251 C.ar    
   5 C5            -2.4181     1.3430     0.0328 C.ar    
   6 C6            -1.2225     2.0573     0.0306 C.ar    
   7 F7             1.1444     2.0716     0.0023 F       
   8 C8            -3.7158     2.0633     0.0486 C.2     
   9 N9            -4.9051     1.5200     0.0571 N.2     
  10 N10           -3.8894     3.4042     0.0628 N.2     
  11 C11           -5.1857     3.5910     0.0734 C.2     
  12 O12           -5.7574     2.3828     0.0694 O.3     
  13 C13           -5.8986     4.9186     0.0912 C.3     
  14 C14           -6.8208     5.1432    -1.1208 C.3     
  15 N15           -7.7870     5.7018    -0.1553 N.am    
  16 C16           -7.1819     4.9217     0.9416 C.3     
  17 C17           -8.8108     6.5742    -0.2408 C.2     
  18 O18           -9.0913     7.0772    -1.3081 O.2     
  19 C19           -9.6070     6.9246     0.9898 C.3     
  20 C20          -10.7303     7.9470     0.6376 C.3     
  21 C21          -11.6016     8.0296     1.9280 C.3     
  22 C22          -10.7109     8.7659     2.9546 C.3     
  23 C23           -9.3852     9.0589     2.1877 C.3     
  24 C24           -8.7162     7.6609     2.0164 C.3     
  25 C25           -9.9356     9.2968     0.7373 C.3     
  26 H26            0.9456    -0.5295    -0.0105 H       
  27 H27           -1.1633    -1.7961     0.0040 H       
  28 H28           -3.3168    -0.6083     0.0306 H       
  29 H29           -1.2373     3.1372     0.0365 H       
  30 H30           -5.2320     5.7562     0.2966 H       
  31 H31           -6.4393     5.8743    -1.8336 H       
  32 H32           -7.1565     4.2206    -1.5944 H       
  33 H33           -7.6236     3.9340     1.0739 H       
  34 H34           -7.0887     5.4759     1.8755 H       
  35 H35          -10.0364     6.0257     1.4323 H       
  36 H36          -11.2702     7.7607    -0.2908 H       
  37 H37          -12.5112     8.5990     1.7366 H       
  38 H38          -11.8466     7.0295     2.2857 H       
  39 H39          -11.1825     9.6973     3.2679 H       
  40 H40          -10.5179     8.1278     3.8170 H       
  41 H41           -8.7537     9.8409     2.6094 H       
  42 H42           -8.7075     7.1249     2.9655 H       
  43 H43           -7.7024     7.7694     1.6310 H       
  44 H44           -9.1345     9.3549     0.0005 H       
  45 H45          -10.5944    10.1637     0.6872 H       
@<TRIPOS>BOND
   1    1    2 ar
   2    1    7 1
   3    1    6 ar
   4    2    3 ar
   5    2   26 1
   6    3    4 ar
   7    3   27 1
   8    4    5 ar
   9    4   28 1
  10    5    6 ar
  11    5    8 1
  12    6   29 1
  13    8    9 2
  14    8   10 1
  15    9   12 1
  16   10   11 2
  17   11   12 1
  18   11   13 1
  19   13   14 1
  20   13   16 1
  21   13   30 1
  22   14   15 1
  23   14   31 1
  24   14   32 1
  25   15   16 1
  26   15   17 am
  27   16   33 1
  28   16   34 1
  29   17   18 2
  30   17   19 1
  31   19   20 1
  32   19   24 1
  33   19   35 1
  34   20   21 1
  35   20   25 1
  36   20   36 1
  37   21   22 1
  38   21   37 1
  39   21   38 1
  40   22   23 1
  41   22   39 1
  42   22   40 1
  43   23   24 1
  44   23   25 1
  45   23   41 1
  46   24   42 1
  47   24   43 1
  48   25   44 1
  49   25   45 1

#	End of record

