#	Name: ASD01948022
#	Creating user name:	WinNT
#	Creation time:	15. 06. 2019 20:13

#	Modifying user name:	WinNT
#	Modification time:	15. 06. 2019 20:13

#	Program:	/corina/corina34_cracker 3.40 0067  02.08.2006

@<TRIPOS>MOLECULE
ASD01948022
  45   48    0    0    0
SMALL
NO_CHARGES


@<TRIPOS>ATOM
   1 C1            -0.3390     1.6826     0.8424 C.3     
   2 C2            -0.7553     0.2484     1.1751 C.3     
   3 C3             0.7133     0.5732     0.8951 C.3     
   4 S4            -0.7933     2.3292    -0.7905 S.o2    
   5 O5             0.1648     1.9400    -1.7651 O.2     
   6 O6            -2.1850     2.1617    -1.0236 O.2     
   7 N7            -0.5961     3.9678    -0.6555 N.am    
   8 C8             1.7817     3.6735    -0.3036 C.2     
   9 C9             0.6955     4.5121    -0.4970 C.2     
  10 C10            0.8804     5.9018    -0.5356 C.2     
  11 C11            2.1625     6.4163    -0.3771 C.2     
  12 C12            3.2256     5.5412    -0.1849 C.2     
  13 N13            3.0271     4.2066    -0.1507 N.am    
  14 N14            1.7937     2.2922    -0.2321 N.pl3   
  15 C15            3.1690     1.8305    -0.0179 C.3     
  16 C16            4.0031     3.1203     0.0384 C.3     
  17 O17            4.3554     5.9865    -0.0448 O.2     
  18 C18            2.3968     7.9046    -0.4138 C.3     
  19 N19           -0.1997     6.7504    -0.7296 N.pl3   
  20 C20           -0.9559     6.6632    -1.9035 C.ar    
  21 C21           -2.1193     7.4138    -2.0407 C.ar    
  22 C22           -2.8633     7.3251    -3.2024 C.ar    
  23 C23           -2.4514     6.4912    -4.2270 C.ar    
  24 C24           -1.2953     5.7443    -4.0925 C.ar    
  25 C25           -0.5440     5.8321    -2.9361 C.ar    
  26 I26           -3.5822     6.3591    -5.9856 I       
  27 F27           -2.5214     8.2276    -1.0401 F       
  28 H28           -0.3451     2.4096     1.6544 H       
  29 H29           -1.0352     0.0319     2.2060 H       
  30 H30           -1.3022    -0.3066     0.4128 H       
  31 H31            1.1327     0.2320    -0.0513 H       
  32 H32            1.3997     0.5705     1.7419 H       
  33 H33           -1.3688     4.5534    -0.6854 H       
  34 H34            1.0150     1.7193    -0.3109 H       
  35 H35            3.2462     1.2898     0.9254 H       
  36 H36            3.4922     1.2003    -0.8463 H       
  37 H37            4.7431     3.1312    -0.7619 H       
  38 H38            4.4908     3.2127     1.0088 H       
  39 H39            2.3961     8.2977     0.6028 H       
  40 H40            3.3597     8.1093    -0.8819 H       
  41 H41            1.6042     8.3831    -0.9890 H       
  42 H42           -0.4306     7.4043    -0.0513 H       
  43 H43           -3.7669     7.9068    -3.3103 H       
  44 H44           -0.9771     5.0942    -4.8940 H       
  45 H45            0.3610     5.2516    -2.8343 H       
@<TRIPOS>BOND
   1    1    2 1
   2    1    3 1
   3    1    4 1
   4    1   28 1
   5    2    3 1
   6    2   29 1
   7    2   30 1
   8    3   31 1
   9    3   32 1
  10    4    5 2
  11    4    6 2
  12    4    7 am
  13    7    9 1
  14    7   33 1
  15    8    9 2
  16    8   13 1
  17    8   14 1
  18    9   10 1
  19   10   11 2
  20   10   19 1
  21   11   12 1
  22   11   18 1
  23   12   13 am
  24   12   17 2
  25   13   16 1
  26   14   15 1
  27   14   34 1
  28   15   16 1
  29   15   35 1
  30   15   36 1
  31   16   37 1
  32   16   38 1
  33   18   39 1
  34   18   40 1
  35   18   41 1
  36   19   20 1
  37   19   42 1
  38   20   21 ar
  39   20   25 ar
  40   21   22 ar
  41   21   27 1
  42   22   23 ar
  43   22   43 1
  44   23   24 ar
  45   23   26 1
  46   24   25 ar
  47   24   44 1
  48   25   45 1

#	End of record

