#	Name: ASD03331249
#	Creating user name:	WinNT
#	Creation time:	15. 06. 2019 20:38

#	Modifying user name:	WinNT
#	Modification time:	15. 06. 2019 20:38

#	Program:	/corina/corina34_cracker 3.40 0067  02.08.2006

@<TRIPOS>MOLECULE
ASD03331249
  58   60    0    0    0
SMALL
NO_CHARGES


@<TRIPOS>ATOM
   1 N1             0.5535     2.2590     1.3298 N.am    
   2 C2             0.4779     0.9020     1.8921 C.3     
   3 C3             0.8362    -0.1018     0.7911 C.3     
   4 N4             2.1361     0.2579     0.2091 N.3     
   5 C5             2.0831     1.5742    -0.4407 C.3     
   6 C6             1.7760     2.6468     0.6098 C.3     
   7 C7            -0.4725     3.1223     1.4658 C.2     
   8 O8            -1.5134     2.7541     1.9750 O.2     
   9 N9            -0.3447     4.3938     1.0375 N.am    
  10 C10           -1.4490     5.2531     1.0569 C.ar    
  11 C11           -1.2706     6.6103     1.2901 C.ar    
  12 C12           -2.3625     7.4558     1.3082 C.ar    
  13 C13           -3.6324     6.9522     1.0945 C.ar    
  14 C14           -3.8135     5.6011     0.8620 C.ar    
  15 C15           -2.7251     4.7512     0.8374 C.ar    
  16 C16            2.5964    -0.7743    -0.7293 C.3     
  17 C17            3.7969    -0.2664    -1.4855 C.ar    
  18 C18            5.0685    -0.4802    -0.9869 C.ar    
  19 C19            6.1721    -0.0150    -1.6782 C.ar    
  20 C20            6.0063     0.6649    -2.8690 C.ar    
  21 C21            4.7312     0.8804    -3.3718 C.ar    
  22 C22            3.6261     0.4078    -2.6794 C.ar    
  23 O23            4.5655     1.5494    -4.5431 O.3     
  24 C24            5.7485     2.0030    -5.2042 C.3     
  25 C25            5.3648     2.7285    -6.4954 C.3     
  26 N26            4.5704     3.9205    -6.1698 N.3     
  27 C27            5.4269     5.0024    -5.6658 C.3     
  28 C28            3.7886     4.3656    -7.3311 C.3     
  29 H29            1.1838     0.8078     2.7174 H       
  30 H30           -0.5340     0.7091     2.2483 H       
  31 H31            0.8929    -1.1036     1.2168 H       
  32 H32            0.0712    -0.0787     0.0150 H       
  33 H33            3.0442     1.7879    -0.9084 H       
  34 H34            1.3009     1.5740    -1.1997 H       
  35 H35            1.6223     3.6074     0.1182 H       
  36 H36            2.6066     2.7203     1.3118 H       
  37 H37            0.5128     4.7132     0.7157 H       
  38 H38           -0.2790     7.0042     1.4575 H       
  39 H39           -2.2243     8.5115     1.4899 H       
  40 H40           -4.4847     7.6153     1.1095 H       
  41 H41           -4.8066     5.2108     0.6954 H       
  42 H42           -2.8667     3.6968     0.6513 H       
  43 H43            2.8691    -1.6729    -0.1759 H       
  44 H44            1.7970    -1.0090    -1.4321 H       
  45 H45            5.2001    -1.0113    -0.0557 H       
  46 H46            7.1644    -0.1830    -1.2864 H       
  47 H47            6.8685     1.0287    -3.4082 H       
  48 H48            2.6326     0.5743    -3.0686 H       
  49 H49            6.2905     2.6864    -4.5506 H       
  50 H50            6.3820     1.1485    -5.4420 H       
  51 H51            6.2685     3.0280    -7.0261 H       
  52 H52            4.7772     2.0615    -7.1261 H       
  53 H53            6.1611     5.2687    -6.4262 H       
  54 H54            4.8135     5.8727    -5.4325 H       
  55 H55            5.9416     4.6686    -4.7649 H       
  56 H56            3.1643     3.5451    -7.6848 H       
  57 H57            3.1562     5.2053    -7.0431 H       
  58 H58            4.4653     4.6765    -8.1270 H       
@<TRIPOS>BOND
   1    1    2 1
   2    1    6 1
   3    1    7 am
   4    2    3 1
   5    2   29 1
   6    2   30 1
   7    3    4 1
   8    3   31 1
   9    3   32 1
  10    4    5 1
  11    4   16 1
  12    5    6 1
  13    5   33 1
  14    5   34 1
  15    6   35 1
  16    6   36 1
  17    7    8 2
  18    7    9 am
  19    9   10 1
  20    9   37 1
  21   10   11 ar
  22   10   15 ar
  23   11   12 ar
  24   11   38 1
  25   12   13 ar
  26   12   39 1
  27   13   14 ar
  28   13   40 1
  29   14   15 ar
  30   14   41 1
  31   15   42 1
  32   16   17 1
  33   16   43 1
  34   16   44 1
  35   17   18 ar
  36   17   22 ar
  37   18   19 ar
  38   18   45 1
  39   19   20 ar
  40   19   46 1
  41   20   21 ar
  42   20   47 1
  43   21   22 ar
  44   21   23 1
  45   22   48 1
  46   23   24 1
  47   24   25 1
  48   24   49 1
  49   24   50 1
  50   25   26 1
  51   25   51 1
  52   25   52 1
  53   26   27 1
  54   26   28 1
  55   27   53 1
  56   27   54 1
  57   27   55 1
  58   28   56 1
  59   28   57 1
  60   28   58 1

#	End of record

