#	Name: ASD01948300
#	Creating user name:	WinNT
#	Creation time:	15. 06. 2019 20:14

#	Modifying user name:	WinNT
#	Modification time:	15. 06. 2019 20:14

#	Program:	/corina/corina34_cracker 3.40 0067  02.08.2006

@<TRIPOS>MOLECULE
ASD01948300
  47   48    0    0    0
SMALL
NO_CHARGES


@<TRIPOS>ATOM
   1 C1            -0.2035     1.7965    -0.2186 C.2     
   2 N2            -0.2793     0.4387    -0.3204 N.am    
   3 C3             0.8293    -0.3243    -0.3231 C.2     
   4 C4             2.1024     0.2775    -0.2193 C.2     
   5 C5             2.1856     1.6702    -0.1147 C.2     
   6 C6             0.9921     2.4252    -0.1166 C.2     
   7 C7             3.3237    -0.5481    -0.2207 C.2     
   8 C8             3.0463     3.3846    -2.1342 C.ar    
   9 C9             3.8389     3.1729    -1.0128 C.ar    
  10 N10            3.4145     2.2962    -0.0108 N.pl3   
  11 C11            3.4687     4.2512    -3.1227 C.ar    
  12 C12            4.6799     4.9084    -2.9975 C.ar    
  13 C13            5.4712     4.6997    -1.8823 C.ar    
  14 C14            5.0543     3.8342    -0.8900 C.ar    
  15 N15            1.0446     3.8253    -0.0134 N.am    
  16 S16           -0.3560     4.7088    -0.0158 S.o2    
  17 N17           -1.1932     4.3042     1.3545 N.am    
  18 O18            0.7342    -1.5377    -0.4149 O.2     
  19 C19            3.2298    -1.8731    -0.2078 C.2     
  20 C20           -1.5925    -0.2017    -0.4284 C.3     
  21 I21            5.3165     6.2222    -4.5000 I       
  22 C22           -0.9776     5.0558     2.5934 C.3     
  23 C23           -2.1495     3.1947     1.3279 C.3     
  24 O24            0.0272     6.0688     0.1350 O.2     
  25 O25           -1.1271     4.2356    -1.1116 O.2     
  26 C26            5.9170     3.6074     0.3246 C.3     
  27 F27            7.0805     4.3773     0.2205 F       
  28 F28            5.2119     3.9809     1.4737 F       
  29 F29            6.2595     2.2535     0.4071 F       
  30 H30           -1.1118     2.3807    -0.2239 H       
  31 H31            4.2948    -0.0757    -0.2322 H       
  32 H32            2.1029     2.8686    -2.2346 H       
  33 H33            3.9817     2.1267     0.7576 H       
  34 H34            2.8533     4.4159    -3.9948 H       
  35 H35            6.4164     5.2136    -1.7877 H       
  36 H36            1.9013     4.2745     0.0593 H       
  37 H37            2.2639    -2.3450    -0.1041 H       
  38 H38            4.1193    -2.4785    -0.3011 H       
  39 H39           -1.8702    -0.2864    -1.4790 H       
  40 H40           -1.5500    -1.1954     0.0175 H       
  41 H41           -2.3345     0.4004     0.0961 H       
  42 H42           -1.6731     5.8940     2.6355 H       
  43 H43           -1.1448     4.4016     3.4490 H       
  44 H44            0.0455     5.4310     2.6174 H       
  45 H45           -1.6377     2.2677     1.5864 H       
  46 H46           -2.9452     3.3835     2.0484 H       
  47 H47           -2.5770     3.1074     0.3290 H       
@<TRIPOS>BOND
   1    1    2 1
   2    1    6 2
   3    1   30 1
   4    2    3 am
   5    2   20 1
   6    3    4 1
   7    3   18 2
   8    4    5 2
   9    4    7 1
  10    5    6 1
  11    5   10 1
  12    6   15 1
  13    7   19 2
  14    7   31 1
  15    8    9 ar
  16    8   11 ar
  17    8   32 1
  18    9   10 1
  19    9   14 ar
  20   10   33 1
  21   11   12 ar
  22   11   34 1
  23   12   13 ar
  24   12   21 1
  25   13   14 ar
  26   13   35 1
  27   14   26 1
  28   15   16 am
  29   15   36 1
  30   16   17 am
  31   16   24 2
  32   16   25 2
  33   17   22 1
  34   17   23 1
  35   19   37 1
  36   19   38 1
  37   20   39 1
  38   20   40 1
  39   20   41 1
  40   22   42 1
  41   22   43 1
  42   22   44 1
  43   23   45 1
  44   23   46 1
  45   23   47 1
  46   26   27 1
  47   26   28 1
  48   26   29 1

#	End of record

