#	Name: ASD04122004
#	Creating user name:	WinNT
#	Creation time:	15. 06. 2019 20:48

#	Modifying user name:	WinNT
#	Modification time:	15. 06. 2019 20:48

#	Program:	/corina/corina34_cracker 3.40 0067  02.08.2006

@<TRIPOS>MOLECULE
ASD04122004
  43   46    0    0    0
SMALL
NO_CHARGES


@<TRIPOS>ATOM
   1 C1             0.0315     2.0978     0.0335 C.ar    
   2 C2             0.3943     0.7642     0.2471 C.ar    
   3 N3            -0.5555    -0.2510     0.4349 N.pl3   
   4 C4            -1.8174    -0.3749    -0.0890 C.2     
   5 C5            -2.5710     0.5544    -0.8449 C.2     
   6 C6            -2.0642     1.9264    -1.1023 C.3     
   7 O7            -1.2683     2.4193    -0.0535 O.3     
   8 C8            -0.3021    -1.3544     1.1999 C.2     
   9 C9            -1.3491    -2.2073     1.1107 C.2     
  10 C10           -2.3134    -1.6166     0.2973 C.2     
  11 C11            1.0120     3.0658    -0.1131 C.ar    
  12 C12            2.3480     2.7183    -0.0638 C.ar    
  13 C13            2.7114     1.3984     0.1323 C.ar    
  14 C14            1.7431     0.4278     0.2867 C.ar    
  15 O15           -3.6510     0.2239    -1.2913 O.2     
  16 C16           -1.2468     1.9130    -2.3683 C.ar    
  17 C17           -1.2826     0.8113    -3.2024 C.ar    
  18 C18           -0.5327     0.7989    -4.3637 C.ar    
  19 C19            0.2526     1.8884    -4.6909 C.ar    
  20 C20            0.2877     2.9905    -3.8572 C.ar    
  21 C21           -0.4655     3.0046    -2.6982 C.ar    
  22 C22           -3.2570     2.8642    -1.2989 C.3     
  23 C23           -4.1227     2.8596    -0.0373 C.3     
  24 C24            1.0708     1.8745    -5.9564 C.3     
  25 H25            0.5918    -1.5197     1.7829 H       
  26 H26           -1.4238    -3.1742     1.5861 H       
  27 H27           -3.2665    -2.0417     0.0194 H       
  28 H28            0.7303     4.0970    -0.2669 H       
  29 H29            3.1083     3.4768    -0.1787 H       
  30 H30            3.7561     1.1266     0.1643 H       
  31 H31            2.0347    -0.6008     0.4393 H       
  32 H32           -1.8961    -0.0400    -2.9467 H       
  33 H33           -0.5602    -0.0621    -5.0150 H       
  34 H34            0.9015     3.8416    -4.1128 H       
  35 H35           -0.4381     3.8656    -2.0468 H       
  36 H36           -2.8969     3.8753    -1.4888 H       
  37 H37           -3.8503     2.5244    -2.1478 H       
  38 H38           -4.9725     3.5277    -0.1774 H       
  39 H39           -4.4828     1.8485     0.1525 H       
  40 H40           -3.5295     3.1994     0.8116 H       
  41 H41            0.4802     2.2847    -6.7755 H       
  42 H42            1.9669     2.4791    -5.8163 H       
  43 H43            1.3573     0.8497    -6.1926 H       
@<TRIPOS>BOND
   1    1    2 ar
   2    1   11 ar
   3    1    7 1
   4    2    3 1
   5    2   14 ar
   6    3    8 1
   7    3    4 1
   8    4    5 1
   9    4   10 2
  10    5    6 1
  11    5   15 2
  12    6    7 1
  13    6   16 1
  14    6   22 1
  15    8    9 2
  16    8   25 1
  17    9   10 1
  18    9   26 1
  19   10   27 1
  20   11   12 ar
  21   11   28 1
  22   12   13 ar
  23   12   29 1
  24   13   14 ar
  25   13   30 1
  26   14   31 1
  27   16   17 ar
  28   16   21 ar
  29   17   18 ar
  30   17   32 1
  31   18   19 ar
  32   18   33 1
  33   19   20 ar
  34   19   24 1
  35   20   21 ar
  36   20   34 1
  37   21   35 1
  38   22   23 1
  39   22   36 1
  40   22   37 1
  41   23   38 1
  42   23   39 1
  43   23   40 1
  44   24   41 1
  45   24   42 1
  46   24   43 1

#	End of record

