#	Name: ASD05430044
#	Creating user name:	WinNT
#	Creation time:	15. 06. 2019 20:59

#	Modifying user name:	WinNT
#	Modification time:	15. 06. 2019 20:59

#	Program:	/corina/corina34_cracker 3.40 0067  02.08.2006

@<TRIPOS>MOLECULE
ASD05430044
  73   79    0    0    0
SMALL
NO_CHARGES


@<TRIPOS>ATOM
   1 C1            -0.0869     1.1805    -0.3851 C.ar    
   2 C2            -0.0152    -0.0171     0.3256 C.ar    
   3 C3            -1.1484    -0.5313     0.9427 C.ar    
   4 C4            -2.3487     0.1395     0.8555 C.ar    
   5 C5            -2.4282     1.3412     0.1443 C.ar    
   6 C6            -1.2864     1.8615    -0.4724 C.ar    
   7 C7            -4.8586    -0.1312    -0.2084 C.3     
   8 C8            -4.8620     1.3704    -0.0437 C.2     
   9 C9            -3.7098     2.0594     0.0501 C.2     
  10 C10           -6.1908    -0.6193    -0.7670 C.3     
  11 C11           -6.8497     0.4180    -1.6749 C.3     
  12 N12           -7.1269     1.6263    -0.8998 N.pl3   
  13 C13           -6.1637     2.0586     0.0108 C.2     
  14 C14           -8.3583     2.3977    -1.0541 C.3     
  15 C15           -8.7732     2.9237     0.3246 C.3     
  16 O16           -7.6878     3.6169     0.9318 O.3     
  17 N17           -6.4236     2.9975     0.8584 N.2     
  18 C18           -8.1185     3.5556    -1.9884 C.ar    
  19 C19           -9.1487     4.4284    -2.2851 C.ar    
  20 O20            1.0244     1.6811    -0.9874 O.3     
  21 C21            0.8782     2.9120    -1.6985 C.3     
  22 C22            1.7877    -1.1771     1.5633 C.2     
  23 N23            1.2031    -0.7038     0.4171 N.pl3   
  24 C24            2.9408    -1.7686     1.1974 C.2     
  25 N25            3.0619    -1.6624    -0.1341 N.2     
  26 C26            2.0274    -1.0266    -0.6131 C.2     
  27 C27            3.9253    -2.4344     2.1240 C.3     
  28 C28           -8.9299     5.4908    -3.1414 C.ar    
  29 C29           -7.6783     5.6809    -3.7022 C.ar    
  30 C30           -6.6472     4.8060    -3.4042 C.ar    
  31 C31           -6.8671     3.7474    -2.5435 C.ar    
  32 F32           -7.4633     6.7189    -4.5398 F       
  33 C33           -9.4620     1.5000    -1.6170 C.3     
  34 C34           -5.9602    -1.9208    -1.5690 C.3     
  35 C35           -6.2202    -3.0189    -0.5117 C.3     
  36 C36           -7.1397    -2.3866     0.4963 C.ar    
  37 C37           -7.1198    -1.0037     0.3464 C.ar    
  38 N38           -7.8879    -2.9765     1.4170 N.ar    
  39 C39           -8.6333    -2.2229     2.2104 C.ar    
  40 C40           -8.6624    -0.8472     2.1173 C.ar    
  41 C41           -7.8902    -0.1873     1.1644 C.ar    
  42 H42           -1.0886    -1.4594     1.4918 H       
  43 H43           -3.2283    -0.2628     1.3359 H       
  44 H44           -1.3433     2.7893    -1.0222 H       
  45 H45           -4.0580    -0.4151    -0.8914 H       
  46 H46           -4.6839    -0.5977     0.7611 H       
  47 H47           -3.7253     3.1393     0.0562 H       
  48 H48           -6.1785     0.6597    -2.4989 H       
  49 H49           -7.7829     0.0163    -2.0697 H       
  50 H50           -9.6183     3.6029     0.2129 H       
  51 H51           -9.0664     2.0863     0.9577 H       
  52 H52          -10.1250     4.2797    -1.8479 H       
  53 H53            1.8373     3.1986    -2.1297 H       
  54 H54            0.1447     2.7866    -2.4950 H       
  55 H55            0.5410     3.6896    -1.0132 H       
  56 H56            1.4001    -1.0884     2.5675 H       
  57 H57            1.8556    -0.7959    -1.6541 H       
  58 H58            3.6678    -3.4881     2.2315 H       
  59 H59            4.9301    -2.3463     1.7106 H       
  60 H60            3.8902    -1.9504     3.1000 H       
  61 H61           -9.7349     6.1724    -3.3734 H       
  62 H62           -5.6706     4.9533    -3.8411 H       
  63 H63           -6.0630     3.0649    -2.3110 H       
  64 H64           -9.6391     0.6698    -0.9333 H       
  65 H65          -10.3786     2.0789    -1.7306 H       
  66 H66           -9.1548     1.1119    -2.5880 H       
  67 H67           -6.6714    -1.9995    -2.3914 H       
  68 H68           -4.9353    -1.9724    -1.9363 H       
  69 H69           -6.7009    -3.8816    -0.9730 H       
  70 H70           -5.2850    -3.3153    -0.0367 H       
  71 H71           -9.2432    -2.7048     2.9602 H       
  72 H72           -9.2880    -0.2776     2.7885 H       
  73 H73           -7.8912     0.8883     1.0672 H       
@<TRIPOS>BOND
   1    1    2 ar
   2    1   20 1
   3    1    6 ar
   4    2    3 ar
   5    2   23 1
   6    3    4 ar
   7    3   42 1
   8    4    5 ar
   9    4   43 1
  10    5    6 ar
  11    5    9 1
  12    6   44 1
  13    7    8 1
  14    7   10 1
  15    7   45 1
  16    7   46 1
  17    8    9 2
  18    8   13 1
  19    9   47 1
  20   10   11 1
  21   10   34 1
  22   10   37 1
  23   11   12 1
  24   11   48 1
  25   11   49 1
  26   12   13 1
  27   12   14 1
  28   13   17 2
  29   14   15 1
  30   14   18 1
  31   14   33 1
  32   15   16 1
  33   15   50 1
  34   15   51 1
  35   16   17 1
  36   18   19 ar
  37   18   31 ar
  38   19   28 ar
  39   19   52 1
  40   20   21 1
  41   21   53 1
  42   21   54 1
  43   21   55 1
  44   22   23 1
  45   22   24 2
  46   22   56 1
  47   23   26 1
  48   24   25 1
  49   24   27 1
  50   25   26 2
  51   26   57 1
  52   27   58 1
  53   27   59 1
  54   27   60 1
  55   28   29 ar
  56   28   61 1
  57   29   30 ar
  58   29   32 1
  59   30   31 ar
  60   30   62 1
  61   31   63 1
  62   33   64 1
  63   33   65 1
  64   33   66 1
  65   34   35 1
  66   34   67 1
  67   34   68 1
  68   35   36 1
  69   35   69 1
  70   35   70 1
  71   36   37 ar
  72   36   38 ar
  73   37   41 ar
  74   38   39 ar
  75   39   40 ar
  76   39   71 1
  77   40   41 ar
  78   40   72 1
  79   41   73 1

#	End of record

