#	Name: ASD01890025
#	Creating user name:	WinNT
#	Creation time:	15. 06. 2019 19:50

#	Modifying user name:	WinNT
#	Modification time:	15. 06. 2019 19:50

#	Program:	/corina/corina34_cracker 3.40 0067  02.08.2006

@<TRIPOS>MOLECULE
ASD01890025
  17   18    0    0    0
SMALL
NO_CHARGES


@<TRIPOS>ATOM
   1 C1            -0.0157     1.3055     0.0092 C.2     
   2 N2             0.0021    -0.0041     0.0020 N.2     
   3 C3             1.2882    -0.4432    -0.0126 C.ar    
   4 C4             2.1131     0.6939    -0.0144 C.ar    
   5 N5             1.2618     1.7873    -0.0004 N.pl3   
   6 C6             1.8682    -1.7137    -0.0257 C.ar    
   7 C7             3.2407    -1.8392    -0.0401 C.ar    
   8 C8             4.0503    -0.7124    -0.0413 C.ar    
   9 C9             3.4916     0.5494    -0.0290 C.ar    
  10 Cl10           3.9615    -3.4184    -0.0563 Cl      
  11 N11           -1.1551     2.0822     0.0190 N.pl3   
  12 H12            1.5246     2.7211     0.0018 H       
  13 H13            1.2434    -2.5946    -0.0241 H       
  14 H14            5.1245    -0.8235    -0.0524 H       
  15 H15            4.1272     1.4226    -0.0307 H       
  16 H16           -2.0290     1.6612     0.0214 H       
  17 H17           -1.0827     3.0495     0.0236 H       
@<TRIPOS>BOND
   1    1    2 2
   2    1    5 1
   3    1   11 1
   4    2    3 1
   5    3    4 ar
   6    3    6 ar
   7    4    5 1
   8    4    9 ar
   9    5   12 1
  10    6    7 ar
  11    6   13 1
  12    7    8 ar
  13    7   10 1
  14    8    9 ar
  15    8   14 1
  16    9   15 1
  17   11   16 1
  18   11   17 1

#	End of record

