#	Name: ASD01190028
#	Creating user name:	WinNT
#	Creation time:	15. 06. 2019 19:07

#	Modifying user name:	WinNT
#	Modification time:	15. 06. 2019 19:07

#	Program:	/corina/corina34_cracker 3.40 0067  02.08.2006

@<TRIPOS>MOLECULE
ASD01190028
  95   96    0    0    0
SMALL
NO_CHARGES


@<TRIPOS>ATOM
   1 C1            -0.0167     1.3780     0.0096 C.ar    
   2 C2             0.0021    -0.0041     0.0020 C.ar    
   3 C3             1.2084    -0.6796    -0.0131 C.ar    
   4 C4             2.3961     0.0268    -0.0202 C.ar    
   5 C5             2.3780     1.4104    -0.0126 C.ar    
   6 C6             1.1708     2.0857     0.0021 C.ar    
   7 Cl7            3.8696     2.2984    -0.0209 Cl      
   8 C8             3.7108    -0.7096    -0.0357 C.3     
   9 O9             3.4641    -2.1405    -0.0407 O.3     
  10 C10            4.5423    -2.9467    -0.0544 C.2     
  11 O11            5.6590    -2.4676    -0.0620 O.2     
  12 N12            4.3831    -4.2850    -0.0597 N.am    
  13 C13            5.5564    -5.1622    -0.0746 C.3     
  14 C14            5.1011    -6.6228    -0.0779 C.3     
  15 C15            6.3264    -7.5390    -0.0935 C.3     
  16 C16            5.8711    -8.9996    -0.0968 C.3     
  17 C17            7.0964    -9.9157    -0.1124 C.3     
  18 N18            7.8482    -9.7470     1.1336 N.am    
  19 C19            6.6501   -11.3495    -0.2395 C.2     
  20 O20            6.5997   -12.0583     0.7433 O.2     
  21 N21            6.3068   -11.8441    -1.4453 N.am    
  22 C22            5.8729   -13.2379    -1.5689 C.3     
  23 C23            5.5443   -13.5420    -3.0319 C.3     
  24 N24            5.1104   -14.9358    -3.1554 N.am    
  25 C25            7.2595   -10.0108     2.3169 C.2     
  26 O26            6.1073   -10.3879     2.3502 O.2     
  27 C27            8.0328    -9.8371     3.5986 C.3     
  28 N28            7.1775   -10.1850     4.7360 N.am    
  29 C29            9.2581   -10.7533     3.5830 C.3     
  30 C30           10.0968   -10.4913     4.8074 C.ar    
  31 C31            9.8660   -11.2045     5.9688 C.ar    
  32 C32           10.6353   -10.9641     7.0919 C.ar    
  33 C33           11.6357   -10.0109     7.0534 C.ar    
  34 C34           11.8671    -9.2983     5.8917 C.ar    
  35 C35           11.1006    -9.5417     4.7673 C.ar    
  36 C36            6.3483    -9.2621     5.2626 C.2     
  37 O37            6.3103    -8.1438     4.7949 O.2     
  38 C38            5.4685    -9.6199     6.4326 C.3     
  39 C39            4.6322    -8.4028     6.8328 C.3     
  40 C40            3.7523    -8.7606     8.0028 C.2     
  41 O41            3.7902    -9.8748     8.4688 O.2     
  42 O42            2.9265    -7.8415     8.5273 O.3     
  43 O43            4.3684   -16.7113    -4.4748 O.3     
  44 C44            4.0140   -17.1760    -5.8040 C.3     
  45 C45            5.2228   -17.0380    -6.7317 C.3     
  46 C46            3.5894   -18.6443    -5.7346 C.3     
  47 C47            2.8563   -16.3355    -6.3463 C.3     
  48 C48            4.7672   -15.4304    -4.3613 C.2     
  49 O49            4.8176   -14.7202    -5.3460 O.2     
  50 H50           -0.9593     1.9051     0.0169 H       
  51 H51           -0.9259    -0.5565     0.0083 H       
  52 H52            1.2224    -1.7595    -0.0190 H       
  53 H53            1.1560     3.1655     0.0077 H       
  54 H54            4.2709    -0.4344    -0.9293 H       
  55 H55            4.2869    -0.4434     0.8506 H       
  56 H56            3.4917    -4.6674    -0.0537 H       
  57 H57            6.1471    -4.9637    -0.9690 H       
  58 H58            6.1630    -4.9727     0.8109 H       
  59 H59            4.5104    -6.8213     0.8164 H       
  60 H60            4.4944    -6.8123    -0.9635 H       
  61 H61            6.9171    -7.3405    -0.9878 H       
  62 H62            6.9330    -7.3495     0.7920 H       
  63 H63            5.2804    -9.1981     0.7975 H       
  64 H64            5.2645    -9.1891    -0.9824 H       
  65 H65            7.7328    -9.6570    -0.9587 H       
  66 H66            8.7697    -9.4453     1.1069 H       
  67 H67            6.3471   -11.2772    -2.2314 H       
  68 H68            6.6715   -13.8983    -1.2310 H       
  69 H69            4.9856   -13.3978    -0.9564 H       
  70 H70            4.7457   -12.8815    -3.3698 H       
  71 H71            6.4317   -13.3820    -3.6444 H       
  72 H72            5.0702   -15.5027    -2.3694 H       
  73 H73            8.3557    -8.8001     3.6905 H       
  74 H74            7.2079   -11.0794     5.1101 H       
  75 H75            8.9338   -11.7939     3.5807 H       
  76 H76            9.8488   -10.5548     2.6887 H       
  77 H77            9.0845   -11.9492     5.9989 H       
  78 H78           10.4546   -11.5209     7.9995 H       
  79 H79           12.2363    -9.8226     7.9310 H       
  80 H80           12.6484    -8.5533     5.8617 H       
  81 H81           11.2814    -8.9850     3.8597 H       
  82 H82            4.8065   -10.4393     6.1523 H       
  83 H83            6.0898    -9.9265     7.2741 H       
  84 H84            5.2941    -7.5835     7.1132 H       
  85 H85            4.0109    -8.0963     5.9914 H       
  86 H86            2.3816    -8.1177     9.2769 H       
  87 H87            6.0475   -17.6368    -6.3454 H       
  88 H88            4.9567   -17.3868    -7.7295 H       
  89 H89            5.5252   -15.9920    -6.7812 H       
  90 H90            2.7283   -18.7426    -5.0736 H       
  91 H91            3.3233   -18.9931    -6.7323 H       
  92 H92            4.4142   -19.2431    -5.3482 H       
  93 H93            3.1587   -15.2894    -6.3957 H       
  94 H94            2.5902   -16.6843    -7.3441 H       
  95 H95            1.9951   -16.4338    -5.6853 H       
@<TRIPOS>BOND
   1    1    2 ar
   2    1    6 ar
   3    1   50 1
   4    2    3 ar
   5    2   51 1
   6    3    4 ar
   7    3   52 1
   8    4    5 ar
   9    4    8 1
  10    5    6 ar
  11    5    7 1
  12    6   53 1
  13    8    9 1
  14    8   54 1
  15    8   55 1
  16    9   10 1
  17   10   11 2
  18   10   12 am
  19   12   13 1
  20   12   56 1
  21   13   14 1
  22   13   57 1
  23   13   58 1
  24   14   15 1
  25   14   59 1
  26   14   60 1
  27   15   16 1
  28   15   61 1
  29   15   62 1
  30   16   17 1
  31   16   63 1
  32   16   64 1
  33   17   18 1
  34   17   19 1
  35   17   65 1
  36   18   25 am
  37   18   66 1
  38   19   20 2
  39   19   21 am
  40   21   22 1
  41   21   67 1
  42   22   23 1
  43   22   68 1
  44   22   69 1
  45   23   24 1
  46   23   70 1
  47   23   71 1
  48   24   48 am
  49   24   72 1
  50   25   26 2
  51   25   27 1
  52   27   28 1
  53   27   29 1
  54   27   73 1
  55   28   36 am
  56   28   74 1
  57   29   30 1
  58   29   75 1
  59   29   76 1
  60   30   31 ar
  61   30   35 ar
  62   31   32 ar
  63   31   77 1
  64   32   33 ar
  65   32   78 1
  66   33   34 ar
  67   33   79 1
  68   34   35 ar
  69   34   80 1
  70   35   81 1
  71   36   37 2
  72   36   38 1
  73   38   39 1
  74   38   82 1
  75   38   83 1
  76   39   40 1
  77   39   84 1
  78   39   85 1
  79   40   41 2
  80   40   42 1
  81   42   86 1
  82   43   44 1
  83   43   48 1
  84   44   45 1
  85   44   46 1
  86   44   47 1
  87   45   87 1
  88   45   88 1
  89   45   89 1
  90   46   90 1
  91   46   91 1
  92   46   92 1
  93   47   93 1
  94   47   94 1
  95   47   95 1
  96   48   49 2

#	End of record

