#	Name: ASD01903347
#	Creating user name:	WinNT
#	Creation time:	15. 06. 2019 19:54

#	Modifying user name:	WinNT
#	Modification time:	15. 06. 2019 19:54

#	Program:	/corina/corina34_cracker 3.40 0067  02.08.2006

@<TRIPOS>MOLECULE
ASD01903347
  41   44    0    0    0
SMALL
NO_CHARGES


@<TRIPOS>ATOM
   1 C1            -0.0692     1.3357     0.1657 C.ar    
   2 C2            -0.0419    -0.0431     0.1536 C.ar    
   3 C3             1.1690    -0.7250     0.1106 C.ar    
   4 C4             2.3487    -0.0175     0.0795 C.ar    
   5 C5             2.3185     1.3724     0.0913 C.ar    
   6 C6             1.1161     2.0465     0.1344 C.ar    
   7 S7             1.4756    -2.4617     0.0875 S.o2    
   8 N8             3.1237    -2.6500     0.0348 N.am    
   9 S9             3.7349    -1.1069     0.0279 S.o2    
  10 O10            4.3469    -0.9211    -1.2410 O.2     
  11 O11            4.4246    -0.9407     1.2591 O.2     
  12 O12            1.0525    -2.9629     1.3481 O.2     
  13 O13            0.9748    -2.9433    -1.1520 O.2     
  14 C14            3.8423    -3.8496     0.0035 C.ar    
  15 C15            5.2302    -3.8266    -0.0395 C.ar    
  16 C16            5.9400    -5.0125    -0.0700 C.ar    
  17 C17            5.2634    -6.2274    -0.0575 C.ar    
  18 C18            3.8761    -6.2486    -0.0145 C.ar    
  19 C19            3.1678    -5.0638     0.0212 C.ar    
  20 N20            5.9821    -7.4304    -0.0889 N.am    
  21 C21            5.4082    -8.5456    -0.5820 C.2     
  22 C22            6.1957    -9.7948    -0.6977 C.ar    
  23 O23            4.2443    -8.5264    -0.9319 O.2     
  24 F24            7.2902    -4.9912    -0.1123 F       
  25 C25            5.5968   -10.9441    -1.2081 C.ar    
  26 C26            6.3467   -12.1054    -1.3107 C.ar    
  27 C27            7.6698   -12.0765    -0.8990 C.ar    
  28 C28            8.2007   -10.8972    -0.4007 C.ar    
  29 N29            7.4681    -9.8082    -0.3190 N.ar    
  30 H30           -1.0138     1.8585     0.1950 H       
  31 H31           -0.9684    -0.5976     0.1780 H       
  32 H32            3.2439     1.9286     0.0669 H       
  33 H33            1.1006     3.1264     0.1430 H       
  34 H34            5.7548    -2.8826    -0.0495 H       
  35 H35            3.3506    -7.1921    -0.0052 H       
  36 H36            2.0884    -5.0810     0.0547 H       
  37 H37            6.8926    -7.4602     0.2443 H       
  38 H38            4.5627   -10.9308    -1.5193 H       
  39 H39            5.9098   -13.0122    -1.7022 H       
  40 H40            8.2810   -12.9644    -0.9655 H       
  41 H41            9.2313   -10.8712    -0.0790 H       
@<TRIPOS>BOND
   1    1    2 ar
   2    1    6 ar
   3    1   30 1
   4    2    3 ar
   5    2   31 1
   6    3    4 ar
   7    3    7 1
   8    4    5 ar
   9    4    9 1
  10    5    6 ar
  11    5   32 1
  12    6   33 1
  13    7    8 am
  14    7   12 2
  15    7   13 2
  16    8    9 am
  17    8   14 1
  18    9   10 2
  19    9   11 2
  20   14   15 ar
  21   14   19 ar
  22   15   16 ar
  23   15   34 1
  24   16   17 ar
  25   16   24 1
  26   17   18 ar
  27   17   20 1
  28   18   19 ar
  29   18   35 1
  30   19   36 1
  31   20   21 am
  32   20   37 1
  33   21   22 1
  34   21   23 2
  35   22   25 ar
  36   22   29 ar
  37   25   26 ar
  38   25   38 1
  39   26   27 ar
  40   26   39 1
  41   27   28 ar
  42   27   40 1
  43   28   29 ar
  44   28   41 1

#	End of record

