#	Name: ASD00960194
#	Creating user name:	WinNT
#	Creation time:	15. 06. 2019 18:53

#	Modifying user name:	WinNT
#	Modification time:	15. 06. 2019 18:53

#	Program:	/corina/corina34_cracker 3.40 0067  02.08.2006

@<TRIPOS>MOLECULE
ASD00960194
  38   40    0    0    0
SMALL
NO_CHARGES


@<TRIPOS>ATOM
   1 C1            -0.0168     1.3881     0.0097 C.2     
   2 C2             0.0021    -0.0041     0.0020 C.2     
   3 N3             1.2760     1.8327    -0.0003 N.pl3   
   4 C4             2.1098     0.7438    -0.0141 C.2     
   5 C5             1.3263    -0.4038    -0.0128 C.2     
   6 N6             1.8446     3.1140     0.0007 N.2     
   7 C7             3.1538     3.2522    -0.0114 C.2     
   8 N8             3.9756     2.1953    -0.0249 N.2     
   9 C9             3.5102     0.9606    -0.0259 C.2     
  10 N10            4.3805    -0.1114    -0.0399 N.pl3   
  11 C11            3.7145     4.5699    -0.0106 C.1     
  12 C12            4.1742     5.6501    -0.0099 C.1     
  13 C13            4.7507     7.0046    -0.0091 C.3     
  14 O14            6.1768     6.9154    -0.0234 O.3     
  15 C15           -1.2118     2.2287     0.0202 C.2     
  16 O16           -2.3157     1.7169     0.0233 O.2     
  17 O17           -1.0913     3.5728     0.0264 O.3     
  18 C18           -2.3015     4.3326     0.0365 C.3     
  19 C19           -1.9714     5.8030     0.0423 C.ar    
  20 C20           -1.8262     6.4835    -1.1522 C.ar    
  21 C21           -1.5234     7.8322    -1.1469 C.ar    
  22 C22           -1.3661     8.5006     0.0528 C.ar    
  23 C23           -1.5122     7.8203     1.2473 C.ar    
  24 C24           -1.8193     6.4726     1.2421 C.ar    
  25 H25           -0.8605    -0.6539     0.0071 H       
  26 H26            1.6857    -1.4222    -0.0213 H       
  27 H27            5.3383     0.0415    -0.0490 H       
  28 H28            4.0340    -1.0175    -0.0405 H       
  29 H29            4.4115     7.5443    -0.8932 H       
  30 H30            4.4288     7.5359     0.8866 H       
  31 H31            6.6245     7.7725    -0.0237 H       
  32 H32           -2.8871     4.0952    -0.8516 H       
  33 H33           -2.8778     4.0861     0.9283 H       
  34 H34           -1.9491     5.9613    -2.0895 H       
  35 H35           -1.4093     8.3637    -2.0801 H       
  36 H36           -1.1288     9.5542     0.0570 H       
  37 H37           -1.3890     8.3425     2.1847 H       
  38 H38           -1.9371     5.9419     2.1753 H       
@<TRIPOS>BOND
   1    1    2 2
   2    1    3 1
   3    1   15 1
   4    2    5 1
   5    2   25 1
   6    3    4 1
   7    3    6 1
   8    4    5 2
   9    4    9 1
  10    5   26 1
  11    6    7 2
  12    7    8 1
  13    7   11 1
  14    8    9 2
  15    9   10 1
  16   10   27 1
  17   10   28 1
  18   11   12 3
  19   12   13 1
  20   13   14 1
  21   13   29 1
  22   13   30 1
  23   14   31 1
  24   15   16 2
  25   15   17 1
  26   17   18 1
  27   18   19 1
  28   18   32 1
  29   18   33 1
  30   19   20 ar
  31   19   24 ar
  32   20   21 ar
  33   20   34 1
  34   21   22 ar
  35   21   35 1
  36   22   23 ar
  37   22   36 1
  38   23   24 ar
  39   23   37 1
  40   24   38 1

#	End of record

