#	Name: ASD04880481
#	Creating user name:	WinNT
#	Creation time:	15. 06. 2019 20:53

#	Modifying user name:	WinNT
#	Modification time:	15. 06. 2019 20:53

#	Program:	/corina/corina34_cracker 3.40 0067  02.08.2006

@<TRIPOS>MOLECULE
ASD04880481
  51   54    0    0    0
SMALL
NO_CHARGES


@<TRIPOS>ATOM
   1 C1            -0.0144     1.2118     0.0087 C.2     
   2 O2             0.0580    -0.0018    -0.0140 O.2     
   3 C3             1.2185     2.0263    -0.0194 C.ar    
   4 C4             2.4678     1.4100     0.0723 C.ar    
   5 C5             3.6162     2.1777     0.0455 C.ar    
   6 C6             3.5284     3.5558    -0.0722 C.ar    
   7 C7             2.2927     4.1705    -0.1628 C.ar    
   8 C8             1.1388     3.4143    -0.1434 C.ar    
   9 F9             4.8265     1.5840     0.1345 F       
  10 N10           -1.2192     1.8143     0.0539 N.am    
  11 N11           -1.4358     3.1834     0.1955 N.2     
  12 C12           -2.6794     3.5207     0.2112 C.2     
  13 C13           -3.5395     2.2856     0.0664 C.3     
  14 C14           -2.5204     1.1343    -0.0448 C.3     
  15 C15           -3.1855     4.8983     0.3491 C.ar    
  16 C16           -2.2903     5.9642     0.4760 C.ar    
  17 C17           -2.7701     7.2536     0.6045 C.ar    
  18 C18           -4.1437     7.4891     0.6073 C.ar    
  19 C19           -5.0324     6.4317     0.4819 C.ar    
  20 C20           -4.5609     5.1425     0.3475 C.ar    
  21 O21           -1.9019     8.2930     0.7286 O.3     
  22 C22           -0.5079     7.9786     0.7182 C.3     
  23 O23           -4.6137     8.7584     0.7338 O.3     
  24 C24           -6.0325     8.9283     0.7290 C.3     
  25 C25           -6.3638    10.3908     0.8782 C.ar    
  26 C26           -6.4967    11.1873    -0.2438 C.ar    
  27 C27           -6.8005    12.5289    -0.1070 C.ar    
  28 C28           -6.9719    13.0739     1.1518 C.ar    
  29 C29           -6.8399    12.2772     2.2737 C.ar    
  30 C30           -6.5404    10.9347     2.1367 C.ar    
  31 H31            2.5363     0.3362     0.1644 H       
  32 H32            4.4285     4.1523    -0.0928 H       
  33 H33            2.2311     5.2449    -0.2536 H       
  34 H34            0.1752     3.8960    -0.2192 H       
  35 H35           -4.1733     2.1561     0.9437 H       
  36 H36           -4.1446     2.3450    -0.8382 H       
  37 H37           -2.6161     0.6265    -1.0045 H       
  38 H38           -2.6485     0.4301     0.7774 H       
  39 H39           -1.2260     5.7803     0.4740 H       
  40 H40           -6.0961     6.6187     0.4850 H       
  41 H41           -5.2551     4.3214     0.2451 H       
  42 H42           -0.2808     7.3068     1.5459 H       
  43 H43           -0.2518     7.4939    -0.2239 H       
  44 H44            0.0721     8.8953     0.8246 H       
  45 H45           -6.4397     8.5576    -0.2117 H       
  46 H46           -6.4680     8.3707     1.5582 H       
  47 H47           -6.3628    10.7615    -1.2272 H       
  48 H48           -6.9036    13.1513    -0.9836 H       
  49 H49           -7.2086    14.1222     1.2587 H       
  50 H50           -6.9735    12.7031     3.2572 H       
  51 H51           -6.4409    10.3114     3.0131 H       
@<TRIPOS>BOND
   1    1    2 2
   2    1    3 1
   3    1   10 am
   4    3    4 ar
   5    3    8 ar
   6    4    5 ar
   7    4   31 1
   8    5    6 ar
   9    5    9 1
  10    6    7 ar
  11    6   32 1
  12    7    8 ar
  13    7   33 1
  14    8   34 1
  15   10   11 1
  16   10   14 1
  17   11   12 2
  18   12   13 1
  19   12   15 1
  20   13   14 1
  21   13   35 1
  22   13   36 1
  23   14   37 1
  24   14   38 1
  25   15   16 ar
  26   15   20 ar
  27   16   17 ar
  28   16   39 1
  29   17   18 ar
  30   17   21 1
  31   18   19 ar
  32   18   23 1
  33   19   20 ar
  34   19   40 1
  35   20   41 1
  36   21   22 1
  37   22   42 1
  38   22   43 1
  39   22   44 1
  40   23   24 1
  41   24   25 1
  42   24   45 1
  43   24   46 1
  44   25   26 ar
  45   25   30 ar
  46   26   27 ar
  47   26   47 1
  48   27   28 ar
  49   27   48 1
  50   28   29 ar
  51   28   49 1
  52   29   30 ar
  53   29   50 1
  54   30   51 1

#	End of record

