#	Name: ASD00111045
#	Creating user name:	WinNT
#	Creation time:	15. 06. 2019 18:30

#	Modifying user name:	WinNT
#	Modification time:	15. 06. 2019 18:30

#	Program:	/corina/corina34_cracker 3.40 0067  02.08.2006

@<TRIPOS>MOLECULE
ASD00111045
  40   42    0    0    0
SMALL
NO_CHARGES


@<TRIPOS>ATOM
   1 C1             0.0454     1.3317     0.1457 C.ar    
   2 C2             0.0275    -0.0486    -0.0421 C.ar    
   3 C3             1.2222    -0.7345    -0.2585 C.ar    
   4 C4             2.4126    -0.0361    -0.2843 C.ar    
   5 C5             2.4246     1.3260    -0.0990 C.ar    
   6 C6             1.2449     2.0160     0.1164 C.ar    
   7 C7             3.7130    -0.7773    -0.5172 C.3     
   8 C8             4.2464    -0.3902    -1.9001 C.3     
   9 N9             5.0140     0.8426    -1.8321 N.3     
  10 C10            4.2679     2.0621    -1.5689 C.3     
  11 C11            3.7391     2.0789    -0.1310 C.3     
  12 C12            3.5168     3.5239     0.3199 C.3     
  13 C13           -1.2592    -0.7871    -0.0113 C.ar    
  14 C14           -2.2758    -0.4581    -0.9060 C.ar    
  15 C15           -1.4533    -1.8155     0.9082 C.ar    
  16 C16           -2.6524    -2.4990     0.9324 C.ar    
  17 C17           -3.6598    -2.1649     0.0458 C.ar    
  18 C18           -3.4705    -1.1481    -0.8730 C.ar    
  19 C19           -2.0711     0.6493    -1.9074 C.3     
  20 F20           -3.1604     0.6925    -2.7841 F       
  21 F21           -1.9645     1.8717    -1.2354 F       
  22 F22           -0.8983     0.4117    -2.6321 F       
  23 H23           -0.8782     1.8669     0.3095 H       
  24 H24            1.2163    -1.8045    -0.4045 H       
  25 H25            1.2618     3.0862     0.2610 H       
  26 H26            4.4375    -0.4975     0.2476 H       
  27 H27            3.5351    -1.8520    -0.4797 H       
  28 H28            4.8851    -1.1900    -2.2747 H       
  29 H29            3.4075    -0.2530    -2.5824 H       
  30 H30            5.7915     0.7498    -1.1957 H       
  31 H31            4.9208     2.9216    -1.7207 H       
  32 H32            3.4278     2.1247    -2.2606 H       
  33 H33            4.4569     1.5934     0.5301 H       
  34 H34            2.7909     4.0022    -0.3376 H       
  35 H35            3.1408     3.5315     1.3429 H       
  36 H36            4.4606     4.0676     0.2757 H       
  37 H37           -0.6670    -2.0776     1.6006 H       
  38 H38           -2.8039    -3.2965     1.6449 H       
  39 H39           -4.5960    -2.7028     0.0677 H       
  40 H40           -4.2606    -0.8910    -1.5629 H       
@<TRIPOS>BOND
   1    1    2 ar
   2    1    6 ar
   3    1   23 1
   4    2    3 ar
   5    2   13 1
   6    3    4 ar
   7    3   24 1
   8    4    5 ar
   9    4    7 1
  10    5    6 ar
  11    5   11 1
  12    6   25 1
  13    7    8 1
  14    7   26 1
  15    7   27 1
  16    8    9 1
  17    8   28 1
  18    8   29 1
  19    9   10 1
  20    9   30 1
  21   10   11 1
  22   10   31 1
  23   10   32 1
  24   11   12 1
  25   11   33 1
  26   12   34 1
  27   12   35 1
  28   12   36 1
  29   13   14 ar
  30   13   15 ar
  31   14   19 1
  32   14   18 ar
  33   15   16 ar
  34   15   37 1
  35   16   17 ar
  36   16   38 1
  37   17   18 ar
  38   17   39 1
  39   18   40 1
  40   19   20 1
  41   19   21 1
  42   19   22 1

#	End of record

