#	Name: ASD03332171
#	Creating user name:	WinNT
#	Creation time:	15. 06. 2019 20:40

#	Modifying user name:	WinNT
#	Modification time:	15. 06. 2019 20:40

#	Program:	/corina/corina34_cracker 3.40 0067  02.08.2006

@<TRIPOS>MOLECULE
ASD03332171
  60   62    0    0    0
SMALL
NO_CHARGES


@<TRIPOS>ATOM
   1 C1            -0.5213     1.8014    -0.6109 C.2     
   2 N2            -0.6455     0.4690    -0.8513 N.pl3   
   3 C3             0.6131    -0.0512    -0.9343 C.2     
   4 N4             1.4791     0.9146    -0.7340 N.2     
   5 C5             0.8110     2.0709    -0.5282 C.2     
   6 C6             1.4158     3.3879    -0.2618 C.2     
   7 O7             0.7053     4.3604    -0.0927 O.2     
   8 N8             2.7564     3.5149    -0.2057 N.am    
   9 C9             3.3577     4.8243     0.0591 C.3     
  10 C10           -1.9117    -0.2579    -0.9771 C.3     
  11 C11           -2.8456     0.5184    -1.9108 C.3     
  12 C12           -3.6432     1.5415    -1.1085 C.3     
  13 N13           -2.8517     2.0728     0.0029 N.3     
  14 C14           -1.6580     2.7819    -0.4815 C.3     
  15 C15            0.9459    -1.4665    -1.2046 C.ar    
  16 C16            3.4190     5.0613     1.5693 C.3     
  17 C17            4.2233     3.9397     2.2295 C.3     
  18 C18            4.0949     6.4055     1.8476 C.3     
  19 C19            1.9999     5.0760     2.1412 C.3     
  20 C20            4.7517     4.8616    -0.5122 C.2     
  21 N21            5.3516     6.0451    -0.7487 N.am    
  22 O22            5.3338     3.8267    -0.7592 O.2     
  23 C23            6.6656     6.0841    -1.3953 C.3     
  24 C24            1.8989    -1.7905    -2.1739 C.ar    
  25 C25            2.2050    -3.1157    -2.4207 C.ar    
  26 C26            1.5695    -4.1186    -1.7105 C.ar    
  27 C27            0.6240    -3.8024    -0.7492 C.ar    
  28 C28            0.3138    -2.4840    -0.4889 C.ar    
  29 C29           -3.6674     2.9413     0.8622 C.3     
  30 F30            2.5189    -0.8113    -2.8681 F       
  31 Br31           1.9933    -5.9292    -2.0542 Br      
  32 H32            3.3231     2.7393    -0.3406 H       
  33 H33            2.7532     5.6026    -0.4067 H       
  34 H34           -1.7235    -1.2485    -1.3912 H       
  35 H35           -2.3755    -0.3543     0.0045 H       
  36 H36           -2.2547     1.0330    -2.6686 H       
  37 H37           -3.5313    -0.1756    -2.3966 H       
  38 H38           -3.9346     2.3619    -1.7644 H       
  39 H39           -4.5403     1.0651    -0.7131 H       
  40 H40           -1.3859     3.5639     0.2274 H       
  41 H41           -1.8680     3.2269    -1.4541 H       
  42 H42            5.2342     3.9292     1.8220 H       
  43 H43            4.2669     4.1086     3.3054 H       
  44 H44            3.7418     2.9821     2.0312 H       
  45 H45            3.5061     7.2073     1.4021 H       
  46 H46            4.1648     6.5610     2.9242 H       
  47 H47            5.0952     6.4056     1.4147 H       
  48 H48            1.5184     4.1184     1.9430 H       
  49 H49            2.0436     5.2449     3.2172 H       
  50 H50            1.4269     5.8751     1.6709 H       
  51 H51            4.9133     6.8711    -0.4907 H       
  52 H52            7.3870     5.5405    -0.7853 H       
  53 H53            6.6000     5.6208    -2.3798 H       
  54 H54            6.9875     7.1200    -1.5020 H       
  55 H55            2.9412    -3.3685    -3.1693 H       
  56 H56            0.1312    -4.5903    -0.1990 H       
  57 H57           -0.4236    -2.2399     0.2614 H       
  58 H58           -4.5016     2.3697     1.2691 H       
  59 H59           -3.0551     3.3223     1.6795 H       
  60 H60           -4.0508     3.7762     0.2756 H       
@<TRIPOS>BOND
   1    1    2 1
   2    1    5 2
   3    1   14 1
   4    2    3 1
   5    2   10 1
   6    3    4 2
   7    3   15 1
   8    4    5 1
   9    5    6 1
  10    6    7 2
  11    6    8 am
  12    8    9 1
  13    8   32 1
  14    9   16 1
  15    9   20 1
  16    9   33 1
  17   10   11 1
  18   10   34 1
  19   10   35 1
  20   11   12 1
  21   11   36 1
  22   11   37 1
  23   12   13 1
  24   12   38 1
  25   12   39 1
  26   13   14 1
  27   13   29 1
  28   14   40 1
  29   14   41 1
  30   15   24 ar
  31   15   28 ar
  32   16   17 1
  33   16   18 1
  34   16   19 1
  35   17   42 1
  36   17   43 1
  37   17   44 1
  38   18   45 1
  39   18   46 1
  40   18   47 1
  41   19   48 1
  42   19   49 1
  43   19   50 1
  44   20   21 am
  45   20   22 2
  46   21   23 1
  47   21   51 1
  48   23   52 1
  49   23   53 1
  50   23   54 1
  51   24   25 ar
  52   24   30 1
  53   25   26 ar
  54   25   55 1
  55   26   27 ar
  56   26   31 1
  57   27   28 ar
  58   27   56 1
  59   28   57 1
  60   29   58 1
  61   29   59 1
  62   29   60 1

#	End of record

