#	Name: ASD03430113
#	Creating user name:	WinNT
#	Creation time:	15. 06. 2019 20:40

#	Modifying user name:	WinNT
#	Modification time:	15. 06. 2019 20:40

#	Program:	/corina/corina34_cracker 3.40 0067  02.08.2006

@<TRIPOS>MOLECULE
ASD03430113
  46   50    0    0    0
SMALL
NO_CHARGES


@<TRIPOS>ATOM
   1 C1             0.2244     1.2449    -0.3303 C.ar    
   2 C2             0.2343    -0.1400    -0.2670 C.ar    
   3 C3             1.4280    -0.8213    -0.1571 C.ar    
   4 C4             2.6349    -0.1308    -0.0993 C.ar    
   5 C5             2.6217     1.2586    -0.1685 C.ar    
   6 C6             1.4244     1.9449    -0.2816 C.ar    
   7 O7             3.6880    -0.9867     0.0369 O.3     
   8 C8             1.7682    -2.2859    -0.0889 C.3     
   9 C9             3.2792    -2.3101    -0.3582 C.3     
  10 C10            0.5588    -3.9429     0.9650 C.ar    
  11 C11            1.4268    -2.8906     1.2405 C.ar    
  12 C12            1.0095    -3.0957    -1.1008 C.2     
  13 N13            0.3354    -4.0373    -0.4108 N.am    
  14 O14            1.0040    -2.9339    -2.3028 O.2     
  15 C15            1.7922    -2.6036     2.5433 C.ar    
  16 C16            1.2916    -3.3717     3.5892 C.ar    
  17 C17            0.4311    -4.4182     3.3206 C.ar    
  18 C18            0.0645    -4.7050     2.0212 C.ar    
  19 N19            2.6631    -1.5442     2.8082 N.am    
  20 O20           -0.9628     1.9018    -0.4452 O.3     
  21 C21           -0.9577     3.2989    -0.1319 C.3     
  22 C22            0.2518     3.9413    -0.8247 C.3     
  23 O23            1.4382     3.3053    -0.3393 O.3     
  24 C24           -0.5303    -5.0431    -1.0315 C.3     
  25 S25            3.7678    -1.6676     4.0357 S.o2    
  26 O26            4.5403    -0.4794     3.9326 O.2     
  27 O27            2.9815    -1.9324     5.1894 O.2     
  28 C28            4.7680    -3.1170     3.6006 C.3     
  29 H29           -0.6962    -0.6870    -0.3035 H       
  30 H30            3.5521     1.8060    -0.1333 H       
  31 H31            3.4811    -2.4779    -1.4161 H       
  32 H32            3.7696    -3.0660     0.2552 H       
  33 H33            1.5745    -3.1505     4.6077 H       
  34 H34            0.0426    -5.0155     4.1322 H       
  35 H35           -0.6092    -5.5253     1.8221 H       
  36 H36            2.6208    -0.7363     2.2731 H       
  37 H37           -1.8765     3.7603    -0.4936 H       
  38 H38           -0.8778     3.4336     0.9468 H       
  39 H39            0.1756     3.7999    -1.9028 H       
  40 H40            0.2845     5.0062    -0.5945 H       
  41 H41           -1.5468    -4.6556    -1.0990 H       
  42 H42           -0.1617    -5.2724    -2.0314 H       
  43 H43           -0.5263    -5.9494    -0.4261 H       
  44 H44            5.2481    -2.9509     2.6362 H       
  45 H45            5.5302    -3.2747     4.3636 H       
  46 H46            4.1266    -3.9963     3.5405 H       
@<TRIPOS>BOND
   1    1    2 ar
   2    1    6 ar
   3    1   20 1
   4    2    3 ar
   5    2   29 1
   6    3    4 ar
   7    3    8 1
   8    4    5 ar
   9    4    7 1
  10    5    6 ar
  11    5   30 1
  12    6   23 1
  13    7    9 1
  14    8    9 1
  15    8   11 1
  16    8   12 1
  17    9   31 1
  18    9   32 1
  19   10   11 ar
  20   10   13 1
  21   10   18 ar
  22   11   15 ar
  23   12   13 am
  24   12   14 2
  25   13   24 1
  26   15   16 ar
  27   15   19 1
  28   16   17 ar
  29   16   33 1
  30   17   18 ar
  31   17   34 1
  32   18   35 1
  33   19   25 am
  34   19   36 1
  35   20   21 1
  36   21   22 1
  37   21   37 1
  38   21   38 1
  39   22   23 1
  40   22   39 1
  41   22   40 1
  42   24   41 1
  43   24   42 1
  44   24   43 1
  45   25   26 2
  46   25   27 2
  47   25   28 1
  48   28   44 1
  49   28   45 1
  50   28   46 1

#	End of record

