#	Name: ASD02620002
#	Creating user name:	WinNT
#	Creation time:	15. 06. 2019 20:25

#	Modifying user name:	WinNT
#	Modification time:	15. 06. 2019 20:25

#	Program:	/corina/corina34_cracker 3.40 0067  02.08.2006

@<TRIPOS>MOLECULE
ASD02620002
  23   24    0    0    0
SMALL
NO_CHARGES


@<TRIPOS>ATOM
   1 C1            -0.4418     2.2754    -1.1135 C.2     
   2 N2            -0.7872     1.8557    -2.2869 N.2     
   3 C3             0.1957     2.2916    -3.2885 C.3     
   4 C4             1.2368     3.0816    -2.4706 C.3     
   5 N5             0.7186     3.0000    -1.0948 N.pl3   
   6 N6            -1.1814     2.0201     0.0187 N.pl3   
   7 C7            -2.4167     1.3693    -0.0840 C.ar    
   8 C8            -2.4847    -0.0150     0.0131 C.ar    
   9 C9            -3.7061    -0.6542    -0.0883 C.ar    
  10 C10           -4.8594     0.0825    -0.2867 C.ar    
  11 C11           -4.7955     1.4603    -0.3843 C.ar    
  12 C12           -3.5783     2.1067    -0.2776 C.ar    
  13 Cl13          -3.5001     3.8370    -0.3931 Cl      
  14 Cl14          -1.0373    -0.9409     0.2610 Cl      
  15 H15            0.6604     1.4301    -3.7680 H       
  16 H16           -0.2754     2.9356    -4.0311 H       
  17 H17            2.2178     2.6117    -2.5406 H       
  18 H18            1.2813     4.1185    -2.8039 H       
  19 H19            1.1297     3.3931    -0.3091 H       
  20 H20           -0.8468     2.2911     0.8879 H       
  21 H21           -3.7597    -1.7302    -0.0129 H       
  22 H22           -5.8123    -0.4196    -0.3659 H       
  23 H23           -5.6982     2.0324    -0.5400 H       
@<TRIPOS>BOND
   1    1    2 2
   2    1    5 1
   3    1    6 1
   4    2    3 1
   5    3    4 1
   6    3   15 1
   7    3   16 1
   8    4    5 1
   9    4   17 1
  10    4   18 1
  11    5   19 1
  12    6    7 1
  13    6   20 1
  14    7    8 ar
  15    7   12 ar
  16    8    9 ar
  17    8   14 1
  18    9   10 ar
  19    9   21 1
  20   10   11 ar
  21   10   22 1
  22   11   12 ar
  23   11   23 1
  24   12   13 1

#	End of record

