#	Name: ASD03240937
#	Creating user name:	WinNT
#	Creation time:	15. 06. 2019 20:35

#	Modifying user name:	WinNT
#	Modification time:	15. 06. 2019 20:35

#	Program:	/corina/corina34_cracker 3.40 0067  02.08.2006

@<TRIPOS>MOLECULE
ASD03240937
  78   85    0    0    0
SMALL
NO_CHARGES


@<TRIPOS>ATOM
   1 N1            -0.0165     1.3644     0.0095 N.pl3   
   2 C2             0.0021    -0.0041     0.0020 C.2     
   3 N3             1.1520    -0.7012    -0.0123 N.2     
   4 C4             2.3201    -0.1125    -0.0199 C.2     
   5 C5             2.3794     1.3476    -0.0126 C.ar    
   6 C6             3.5983     2.0343    -0.0192 C.ar    
   7 C7             3.5626     3.4247    -0.0105 C.ar    
   8 C8             2.3154     4.0793     0.0043 C.ar    
   9 N9             1.1813     3.3950     0.0107 N.ar    
  10 C10            1.1694     2.0733     0.0020 C.ar    
  11 C11           -1.3218    -0.4220     0.0124 C.2     
  12 C12           -2.1233     0.7125     0.0262 C.2     
  13 N13           -1.3548     1.7753     0.0302 N.2     
  14 C14            4.8214     4.2080    -0.0164 C.ar    
  15 C15            5.8326     3.9141     0.8970 C.ar    
  16 C16            7.0021     4.6467     0.8868 C.ar    
  17 C17            7.1720     5.6708    -0.0274 C.ar    
  18 C18            6.1720     5.9669    -0.9361 C.ar    
  19 C19            5.0005     5.2374    -0.9391 C.ar    
  20 C20            2.2713     5.5594     0.0135 C.ar    
  21 C21            1.2566     6.2341    -0.6655 C.ar    
  22 C22            1.2206     7.6133    -0.6528 C.ar    
  23 C23            2.1885     8.3271     0.0312 C.ar    
  24 C24            3.1977     7.6638     0.7062 C.ar    
  25 C25            3.2409     6.2846     0.7061 C.ar    
  26 C26            2.1436     9.8334     0.0406 C.3     
  27 N27            1.3450    10.2923     1.1849 N.3     
  28 C28            1.4718    11.7440     1.3668 C.3     
  29 C29            0.7478    12.1641     2.6479 C.3     
  30 C30           -0.7285    11.7707     2.5465 C.3     
  31 C31           -0.8313    10.2615     2.3090 C.3     
  32 C32           -0.0615     9.8965     1.0377 C.3     
  33 N33           -2.5755    13.2073     5.2584 N.2     
  34 N34           -2.1011    13.2269     4.0637 N.2     
  35 C35           -1.4341    12.1278     3.8293 C.2     
  36 N36           -1.4928    11.3680     4.9484 N.pl3   
  37 C37           -2.2317    12.0850     5.8504 C.2     
  38 C38           -2.5777    11.6750     7.2289 C.ar    
  39 C39           -3.3438    12.5210     8.0309 C.ar    
  40 C40           -3.6594    12.1231     9.3181 C.ar    
  41 C41           -3.1990    10.8916     9.7628 C.ar    
  42 C42           -2.4437    10.1026     8.9144 C.ar    
  43 N43           -2.1611    10.5021     7.6915 N.ar    
  44 C44           -1.9420     8.7648     9.3937 C.3     
  45 C45           -3.6302     0.7208     0.0406 C.3     
  46 H46            3.2279    -0.6974    -0.0310 H       
  47 H47            4.5376     1.5015    -0.0303 H       
  48 H48           -1.6666    -1.4455     0.0097 H       
  49 H49            5.7008     3.1150     1.6114 H       
  50 H50            7.7861     4.4201     1.5942 H       
  51 H51            8.0888     6.2417    -0.0314 H       
  52 H52            6.3100     6.7679    -1.6474 H       
  53 H53            4.2223     5.4666    -1.6520 H       
  54 H54            0.5009     5.6780    -1.2004 H       
  55 H55            0.4355     8.1368    -1.1781 H       
  56 H56            3.9508     8.2265     1.2377 H       
  57 H57            4.0266     5.7678     1.2371 H       
  58 H58            3.1568    10.2266     0.1236 H       
  59 H59            1.6905    10.1892    -0.8848 H       
  60 H60            2.5263    12.0098     1.4417 H       
  61 H61            1.0278    12.2570     0.5138 H       
  62 H62            1.2003    11.6619     3.5030 H       
  63 H63            0.8289    13.2437     2.7744 H       
  64 H64           -1.1909    12.3026     1.7151 H       
  65 H65           -0.4036     9.7294     3.1587 H       
  66 H66           -1.8784     9.9818     2.1933 H       
  67 H67           -0.4983    10.4183     0.1862 H       
  68 H68           -0.1207     8.8206     0.8735 H       
  69 H69           -1.0931    10.4945     5.0834 H       
  70 H70           -3.6854    13.4732     7.6527 H       
  71 H71           -4.2506    12.7569     9.9624 H       
  72 H72           -3.4281    10.5527    10.7623 H       
  73 H73           -2.6787     7.9959     9.1609 H       
  74 H74           -1.0015     8.5297     8.8954 H       
  75 H75           -1.7830     8.8013    10.4714 H       
  76 H76           -3.9837     0.7172     1.0716 H       
  77 H77           -3.9935     1.6155    -0.4650 H       
  78 H78           -4.0033    -0.1644    -0.4745 H       
@<TRIPOS>BOND
   1    1    2 1
   2    1   10 1
   3    1   13 1
   4    2    3 1
   5    2   11 2
   6    3    4 2
   7    4    5 1
   8    4   46 1
   9    5    6 ar
  10    5   10 ar
  11    6    7 ar
  12    6   47 1
  13    7    8 ar
  14    7   14 1
  15    8    9 ar
  16    8   20 1
  17    9   10 ar
  18   11   12 1
  19   11   48 1
  20   12   13 2
  21   12   45 1
  22   14   15 ar
  23   14   19 ar
  24   15   16 ar
  25   15   49 1
  26   16   17 ar
  27   16   50 1
  28   17   18 ar
  29   17   51 1
  30   18   19 ar
  31   18   52 1
  32   19   53 1
  33   20   21 ar
  34   20   25 ar
  35   21   22 ar
  36   21   54 1
  37   22   23 ar
  38   22   55 1
  39   23   24 ar
  40   23   26 1
  41   24   25 ar
  42   24   56 1
  43   25   57 1
  44   26   27 1
  45   26   58 1
  46   26   59 1
  47   27   28 1
  48   27   32 1
  49   28   29 1
  50   28   60 1
  51   28   61 1
  52   29   30 1
  53   29   62 1
  54   29   63 1
  55   30   31 1
  56   30   35 1
  57   30   64 1
  58   31   32 1
  59   31   65 1
  60   31   66 1
  61   32   67 1
  62   32   68 1
  63   33   34 1
  64   33   37 2
  65   34   35 2
  66   35   36 1
  67   36   37 1
  68   36   69 1
  69   37   38 1
  70   38   39 ar
  71   38   43 ar
  72   39   40 ar
  73   39   70 1
  74   40   41 ar
  75   40   71 1
  76   41   42 ar
  77   41   72 1
  78   42   43 ar
  79   42   44 1
  80   44   73 1
  81   44   74 1
  82   44   75 1
  83   45   76 1
  84   45   77 1
  85   45   78 1

#	End of record

