#	Name: ASD08178088
#	Creating user name:	WinNT
#	Creation time:	15. 06. 2019 21:18

#	Modifying user name:	WinNT
#	Modification time:	15. 06. 2019 21:18

#	Program:	/corina/corina34_cracker 3.40 0067  02.08.2006

@<TRIPOS>MOLECULE
ASD08178088
  52   55    0    0    0
SMALL
NO_CHARGES


@<TRIPOS>ATOM
   1 N1            -0.0150     1.2583     0.0090 N.2     
   2 N2             0.0021    -0.0041     0.0020 N.2     
   3 C3             1.1271     1.8769     0.0014 C.2     
   4 S4             2.3826     0.7116    -0.0169 S.3     
   5 C5             1.1681    -0.5677    -0.0121 C.2     
   6 N6             1.3017     3.2566     0.0067 N.am    
   7 C7             0.2284     4.0717     0.0214 C.2     
   8 O8            -0.8897     3.6019     0.0299 O.2     
   9 C9             1.4387    -2.0502    -0.0227 C.3     
  10 C10            1.5165    -2.5442    -1.4687 C.3     
  11 C11            1.8690    -4.5432    -2.9254 C.3     
  12 C12            2.1395    -6.0257    -2.9359 C.2     
  13 N13            1.2478    -6.9651    -2.9329 N.2     
  14 S14            3.7275    -6.7933    -2.9623 S.3     
  15 C15            2.9647    -8.3272    -2.9581 C.2     
  16 N16            1.6777    -8.1521    -2.9433 N.2     
  17 N17            3.6154    -9.5562    -2.9730 N.am    
  18 C18            2.8993   -10.6980    -2.9678 C.2     
  19 O19            1.6874   -10.6536    -2.9501 O.2     
  20 C20            3.6044   -12.0297    -2.9839 C.3     
  21 C21            0.4176     5.5667     0.0272 C.3     
  22 C22           -0.9494     6.2538     0.0441 C.3     
  23 C23            2.5684   -13.1555    -2.9740 C.3     
  24 C24            1.7912    -4.0493    -1.4794 C.3     
  25 C25           -0.9723     7.7784     0.1704 C.3     
  26 C26           -1.3217     7.1159    -1.1638 C.3     
  27 C27            3.0829   -14.5903    -3.1061 C.3     
  28 C28            2.5512   -14.0891    -1.7619 C.3     
  29 H29            2.1959     3.6323    -0.0001 H       
  30 H30            2.3843    -2.2506     0.4811 H       
  31 H31            0.6334    -2.5702     0.4961 H       
  32 H32            0.5709    -2.3438    -1.9724 H       
  33 H33            2.3218    -2.0242    -1.9874 H       
  34 H34            2.6743    -4.0232    -3.4441 H       
  35 H35            0.9234    -4.3429    -3.4291 H       
  36 H36            4.5846    -9.5917    -2.9871 H       
  37 H37            4.2156   -12.1064    -3.8831 H       
  38 H38            4.2413   -12.1143    -2.1034 H       
  39 H39            0.9817     5.8582     0.9132 H       
  40 H40            0.9643     5.8672    -0.8667 H       
  41 H41           -1.7497     5.6964     0.5308 H       
  42 H42            1.6123   -12.9187    -3.4409 H       
  43 H43            2.7368    -4.2496    -0.9756 H       
  44 H44            0.9858    -4.5693    -0.9606 H       
  45 H45           -1.7878     8.2240     0.7398 H       
  46 H46           -0.0135     8.2919     0.2414 H       
  47 H47           -0.5928     7.1937    -1.9705 H       
  48 H48           -2.3671     7.1258    -1.4720 H       
  49 H49            2.4652   -15.2976    -3.6596 H       
  50 H50            4.1596   -14.7322    -3.2001 H       
  51 H51            3.2779   -13.9012    -0.9716 H       
  52 H52            1.5836   -14.4665    -1.4311 H       
@<TRIPOS>BOND
   1    1    2 1
   2    1    3 2
   3    2    5 2
   4    3    4 1
   5    3    6 1
   6    4    5 1
   7    5    9 1
   8    6    7 am
   9    6   29 1
  10    7    8 2
  11    7   21 1
  12    9   10 1
  13    9   30 1
  14    9   31 1
  15   10   24 1
  16   10   32 1
  17   10   33 1
  18   11   12 1
  19   11   24 1
  20   11   34 1
  21   11   35 1
  22   12   13 2
  23   12   14 1
  24   13   16 1
  25   14   15 1
  26   15   16 2
  27   15   17 1
  28   17   18 am
  29   17   36 1
  30   18   19 2
  31   18   20 1
  32   20   23 1
  33   20   37 1
  34   20   38 1
  35   21   22 1
  36   21   39 1
  37   21   40 1
  38   22   25 1
  39   22   26 1
  40   22   41 1
  41   23   27 1
  42   23   28 1
  43   23   42 1
  44   24   43 1
  45   24   44 1
  46   25   26 1
  47   25   45 1
  48   25   46 1
  49   26   47 1
  50   26   48 1
  51   27   28 1
  52   27   49 1
  53   27   50 1
  54   28   51 1
  55   28   52 1

#	End of record

