#	Name: ASD05990003
#	Creating user name:	WinNT
#	Creation time:	15. 06. 2019 21:04

#	Modifying user name:	WinNT
#	Modification time:	15. 06. 2019 21:04

#	Program:	/corina/corina34_cracker 3.40 0067  02.08.2006

@<TRIPOS>MOLECULE
ASD05990003
  40   42    0    0    0
SMALL
NO_CHARGES


@<TRIPOS>ATOM
   1 O1            -4.2755    -7.4800     1.2782 O.2     
   2 O2             0.0259     1.3515     0.0552 O.3     
   3 O3             2.1581     0.6600    -0.2748 O.3     
   4 N4            -2.8712    -9.1635     0.9118 N.am    
   5 C5            -1.9948   -11.7174     1.7544 C.3     
   6 C6            -0.9869   -10.5901     1.5190 C.3     
   7 C7            -3.3031   -11.1307     2.2895 C.3     
   8 C8            -1.5459    -9.6210     0.4725 C.3     
   9 C9            -3.8884   -10.1678     1.2517 C.3     
  10 C10           -3.1467    -7.8476     1.0066 C.2     
  11 C11           -2.1241    -6.8930     0.7905 C.2     
  12 C12           -2.4228    -5.5684     0.7814 C.2     
  13 C13            0.0555    -0.0124     0.1118 C.ar    
  14 C14           -0.6405    -2.3058     0.3327 C.ar    
  15 C15            1.3694    -0.4378    -0.0914 C.ar    
  16 C16           -0.9458    -0.9395     0.3228 C.ar    
  17 C17           -1.4038    -4.6171     0.5660 C.2     
  18 C18           -1.7016    -3.2964     0.5569 C.2     
  19 C19            0.6798    -2.7247     0.1286 C.ar    
  20 C20            1.6724    -1.7933    -0.0811 C.ar    
  21 C21            1.3924     1.7723     0.2242 C.3     
  22 H22           -2.1866   -12.2352     0.8146 H       
  23 H23           -1.5889   -12.4217     2.4806 H       
  24 H24           -4.0124   -11.9363     2.4790 H       
  25 H25           -3.1078   -10.5917     3.2165 H       
  26 H26           -0.8134   -10.0562     2.4533 H       
  27 H27           -0.0476   -11.0110     1.1601 H       
  28 H28           -1.6348   -10.1307    -0.4869 H       
  29 H29           -0.8781    -8.7652     0.3734 H       
  30 H30           -4.7662    -9.6727     1.6668 H       
  31 H31           -4.1683   -10.7220     0.3559 H       
  32 H32           -1.1064    -7.2182     0.6329 H       
  33 H33           -3.4406    -5.2432     0.9390 H       
  34 H34           -1.9625    -0.6112     0.4803 H       
  35 H35           -0.3861    -4.9423     0.4084 H       
  36 H36            0.9199    -3.7776     0.1361 H       
  37 H37           -2.7194    -2.9712     0.7146 H       
  38 H38            2.6903    -2.1182    -0.2386 H       
  39 H39            1.5923     2.6688    -0.3627 H       
  40 H40            1.6119     1.9463     1.2776 H       
@<TRIPOS>BOND
   1    1   10 2
   2    2   13 1
   3    2   21 1
   4    3   15 1
   5    3   21 1
   6    4    8 1
   7    4    9 1
   8    4   10 am
   9    5    6 1
  10    5    7 1
  11    5   22 1
  12    5   23 1
  13    6    8 1
  14    6   26 1
  15    6   27 1
  16    7    9 1
  17    7   24 1
  18    7   25 1
  19    8   28 1
  20    8   29 1
  21    9   30 1
  22    9   31 1
  23   10   11 1
  24   11   12 2
  25   11   32 1
  26   12   17 1
  27   12   33 1
  28   13   15 ar
  29   13   16 ar
  30   14   16 ar
  31   14   18 1
  32   14   19 ar
  33   15   20 ar
  34   16   34 1
  35   17   18 2
  36   17   35 1
  37   18   37 1
  38   19   20 ar
  39   19   36 1
  40   20   38 1
  41   21   39 1
  42   21   40 1

#	End of record

