#	Name: ASD01816300
#	Creating user name:	WinNT
#	Creation time:	15. 06. 2019 19:35

#	Modifying user name:	WinNT
#	Modification time:	15. 06. 2019 19:35

#	Program:	/corina/corina34_cracker 3.40 0067  02.08.2006

@<TRIPOS>MOLECULE
ASD01816300
  71   76    0    0    0
SMALL
NO_CHARGES


@<TRIPOS>ATOM
   1 C1            -0.0167     1.3812     0.0096 C.ar    
   2 C2             0.0021    -0.0041     0.0020 C.ar    
   3 C3             1.1984    -0.6908    -0.0131 C.ar    
   4 C4             2.4015     0.0061    -0.0204 C.ar    
   5 C5             2.3789     1.4106    -0.0127 C.ar    
   6 C6             1.1664     2.0916     0.0022 C.ar    
   7 N7             3.6054    -0.6770    -0.0347 N.pl3   
   8 C8             4.7971    -0.0584    -0.0423 C.2     
   9 C9             4.9001     1.3105    -0.0364 C.2     
  10 C10            3.6673     2.1304    -0.0207 C.2     
  11 C11            5.9972     2.2731    -0.0422 C.2     
  12 N12            5.4244     3.4961    -0.0313 N.am    
  13 N13            4.0322     3.3795    -0.0185 N.2     
  14 O14            7.1917     2.0232    -0.0541 O.2     
  15 C15            3.5781    -2.1418    -0.0413 C.3     
  16 C16            3.5556    -2.6374    -1.4643 C.ar    
  17 C17            4.7435    -2.8866    -2.1269 C.ar    
  18 C18            4.7261    -3.3404    -3.4313 C.ar    
  19 C19            3.5145    -3.5468    -4.0770 C.ar    
  20 C20            2.3235    -3.2961    -3.4089 C.ar    
  21 C21            2.3472    -2.8473    -2.1028 C.ar    
  22 N22            3.4936    -4.0069    -5.4010 N.pl3   
  23 C23            2.3887    -4.2482    -6.1424 C.2     
  24 C24            2.7953    -4.6776    -7.3595 C.2     
  25 C25            4.1944    -4.6999    -7.3632 C.2     
  26 N26            4.6137    -4.2925    -6.1923 N.2     
  27 C27            6.1581     4.7641    -0.0316 C.3     
  28 C28            6.4010     5.2125    -1.4742 C.3     
  29 C29            7.1673     6.5367    -1.4745 C.3     
  30 C30            7.4101     6.9851    -2.9170 C.3     
  31 N31            8.1439     8.2531    -2.9173 N.am    
  32 C32            8.4712     8.8420    -4.0846 C.2     
  33 O33            9.1456    10.0073    -4.0849 O.3     
  34 C34            9.4644    10.5841    -5.3787 C.3     
  35 C35           10.2144    11.8762    -5.1816 C.ar    
  36 C36           11.5945    11.8693    -5.1031 C.ar    
  37 C37            9.5226    13.0691    -5.0849 C.ar    
  38 C38           10.2106    14.2544    -4.9041 C.ar    
  39 C39           11.5904    14.2467    -4.8195 C.ar    
  40 C40           12.2825    13.0546    -4.9223 C.ar    
  41 O41            8.1577     8.3212    -5.1368 O.2     
  42 H42           -0.9602     1.9068     0.0170 H       
  43 H43           -0.9288    -0.5516     0.0083 H       
  44 H44            1.2005    -1.7708    -0.0189 H       
  45 H45            1.1508     3.1714     0.0084 H       
  46 H46            5.6984    -0.6535    -0.0530 H       
  47 H47            4.4658    -2.5240     0.4626 H       
  48 H48            2.6862    -2.4908     0.4791 H       
  49 H49            5.6857    -2.7259    -1.6242 H       
  50 H50            5.6542    -3.5343    -3.9486 H       
  51 H51            1.3794    -3.4554    -3.9087 H       
  52 H52            1.4211    -2.6521    -1.5826 H       
  53 H53            1.3656    -4.1215    -5.8207 H       
  54 H54            2.1533    -4.9543    -8.1827 H       
  55 H55            4.8205    -4.9976    -8.1913 H       
  56 H56            5.5743     5.5219     0.4910 H       
  57 H57            7.1149     4.6304     0.4732 H       
  58 H58            6.9848     4.4547    -1.9968 H       
  59 H59            5.4442     5.3462    -1.9790 H       
  60 H60            6.5835     7.2945    -0.9519 H       
  61 H61            8.1240     6.4030    -0.9696 H       
  62 H62            7.9939     6.2274    -3.4396 H       
  63 H63            6.4534     7.1188    -3.4219 H       
  64 H64            8.3942     8.6688    -2.0774 H       
  65 H65           10.0831     9.8875    -5.9445 H       
  66 H66            8.5426    10.7790    -5.9268 H       
  67 H67           12.1353    10.9378    -5.1828 H       
  68 H68            8.4447    13.0751    -5.1510 H       
  69 H69            9.6702    15.1864    -4.8293 H       
  70 H70           12.1279    15.1728    -4.6786 H       
  71 H71           13.3605    13.0486    -4.8562 H       
@<TRIPOS>BOND
   1    1    2 ar
   2    1    6 ar
   3    1   42 1
   4    2    3 ar
   5    2   43 1
   6    3    4 ar
   7    3   44 1
   8    4    5 ar
   9    4    7 1
  10    5    6 ar
  11    5   10 1
  12    6   45 1
  13    7    8 1
  14    7   15 1
  15    8    9 2
  16    8   46 1
  17    9   10 1
  18    9   11 1
  19   10   13 2
  20   11   12 am
  21   11   14 2
  22   12   13 1
  23   12   27 1
  24   15   16 1
  25   15   47 1
  26   15   48 1
  27   16   17 ar
  28   16   21 ar
  29   17   18 ar
  30   17   49 1
  31   18   19 ar
  32   18   50 1
  33   19   20 ar
  34   19   22 1
  35   20   21 ar
  36   20   51 1
  37   21   52 1
  38   22   23 1
  39   22   26 1
  40   23   24 2
  41   23   53 1
  42   24   25 1
  43   24   54 1
  44   25   26 2
  45   25   55 1
  46   27   28 1
  47   27   56 1
  48   27   57 1
  49   28   29 1
  50   28   58 1
  51   28   59 1
  52   29   30 1
  53   29   60 1
  54   29   61 1
  55   30   31 1
  56   30   62 1
  57   30   63 1
  58   31   32 am
  59   31   64 1
  60   32   33 1
  61   32   41 2
  62   33   34 1
  63   34   35 1
  64   34   65 1
  65   34   66 1
  66   35   36 ar
  67   35   37 ar
  68   36   40 ar
  69   36   67 1
  70   37   38 ar
  71   37   68 1
  72   38   39 ar
  73   38   69 1
  74   39   40 ar
  75   39   70 1
  76   40   71 1

#	End of record

