#	Name: ASD03180053
#	Creating user name:	WinNT
#	Creation time:	15. 06. 2019 20:33

#	Modifying user name:	WinNT
#	Modification time:	15. 06. 2019 20:33

#	Program:	/corina/corina34_cracker 3.40 0067  02.08.2006

@<TRIPOS>MOLECULE
ASD03180053
  43   45    0    0    0
SMALL
NO_CHARGES


@<TRIPOS>ATOM
   1 C1             0.0754     1.6041    -0.9843 C.ar    
   2 C2            -0.0893     0.2626    -0.6536 C.ar    
   3 C3             0.9675    -0.4528    -0.1142 C.ar    
   4 C4             2.1859     0.1645     0.0961 C.ar    
   5 C5             2.3538     1.5032    -0.2334 C.ar    
   6 C6             1.2966     2.2228    -0.7741 C.ar    
   7 N7             3.5884     2.1271    -0.0194 N.pl3   
   8 C8             3.6349     3.4133     0.4948 C.2     
   9 C9             3.3335    -0.6157     0.6838 C.3     
  10 S10            2.2459     4.3272     1.0742 S.3     
  11 C11            3.2982     5.6847     1.4667 C.2     
  12 C12            4.5601     5.3491     1.1410 C.2     
  13 N13            4.7093     4.1278     0.6288 N.2     
  14 C14            6.9926     6.0110     1.0434 C.2     
  15 N15            7.8165     7.0004     1.3140 N.2     
  16 C16            5.7012     6.2686     1.3419 C.2     
  17 S17            5.6177     7.8958     2.0127 S.3     
  18 C18            7.3070     8.0728     1.8197 C.2     
  19 C19            8.0913     9.3042     2.1937 C.3     
  20 C20            7.4499     4.7053     0.4459 C.3     
  21 O21           -0.9599     2.3055    -1.5186 O.3     
  22 O22           -1.2885    -0.3467    -0.8595 O.3     
  23 C23           -0.7193     3.6784    -1.8338 C.3     
  24 C24           -1.3865    -1.7255    -0.4970 C.3     
  25 H25            0.8389    -1.4939     0.1427 H       
  26 H26            1.4265     3.2639    -1.0305 H       
  27 H27            4.4113     1.6593    -0.2310 H       
  28 H28            3.9102    -1.0743    -0.1194 H       
  29 H29            3.9751     0.0560     1.2542 H       
  30 H30            2.9451    -1.3930     1.3419 H       
  31 H31            2.9843     6.6253     1.8948 H       
  32 H32            8.1374     9.9791     1.3391 H       
  33 H33            7.6020     9.8071     3.0279 H       
  34 H34            9.1016     9.0169     2.4848 H       
  35 H35            7.4182     4.7725    -0.6416 H       
  36 H36            8.4701     4.4961     0.7674 H       
  37 H37            6.7920     3.9029     0.7796 H       
  38 H38           -1.6244     4.1192    -2.2516 H       
  39 H39           -0.4384     4.2154    -0.9279 H       
  40 H40            0.0884     3.7477    -2.5625 H       
  41 H41           -0.6618    -2.3041    -1.0698 H       
  42 H42           -1.1804    -1.8368     0.5675 H       
  43 H43           -2.3919    -2.0872    -0.7122 H       
@<TRIPOS>BOND
   1    1    2 ar
   2    1    6 ar
   3    1   21 1
   4    2    3 ar
   5    2   22 1
   6    3    4 ar
   7    3   25 1
   8    4    5 ar
   9    4    9 1
  10    5    6 ar
  11    5    7 1
  12    6   26 1
  13    7    8 1
  14    7   27 1
  15    8   10 1
  16    8   13 2
  17    9   28 1
  18    9   29 1
  19    9   30 1
  20   10   11 1
  21   11   12 2
  22   11   31 1
  23   12   13 1
  24   12   16 1
  25   14   16 2
  26   14   20 1
  27   14   15 1
  28   15   18 2
  29   16   17 1
  30   17   18 1
  31   18   19 1
  32   19   32 1
  33   19   33 1
  34   19   34 1
  35   20   35 1
  36   20   36 1
  37   20   37 1
  38   21   23 1
  39   22   24 1
  40   23   38 1
  41   23   39 1
  42   23   40 1
  43   24   41 1
  44   24   42 1
  45   24   43 1

#	End of record

