#	Name: ASD05740240
#	Creating user name:	WinNT
#	Creation time:	15. 06. 2019 21:03

#	Modifying user name:	WinNT
#	Modification time:	15. 06. 2019 21:03

#	Program:	/corina/corina34_cracker 3.40 0067  02.08.2006

@<TRIPOS>MOLECULE
ASD05740240
  56   58    0    0    0
SMALL
NO_CHARGES


@<TRIPOS>ATOM
   1 C1             0.5178     2.0736    -1.1188 C.ar    
   2 C2             0.4598     0.6848    -1.0345 C.ar    
   3 N3             1.6821     2.7063    -1.1250 N.ar    
   4 C4             2.8251     2.0555    -1.0524 C.ar    
   5 C5             2.8472     0.6653    -0.9662 C.ar    
   6 C6             1.6348    -0.0353    -0.9567 C.ar    
   7 C7             4.1357    -0.0620    -0.8857 C.ar    
   8 C8             5.3420     0.6391    -0.7902 C.ar    
   9 N9             4.1626    -1.3930    -0.8978 N.ar    
  10 C10            5.3129    -2.0445    -0.8260 C.ar    
  11 N11            6.4707    -1.4055    -0.7402 N.ar    
  12 C12            6.5193    -0.0826    -0.7176 C.ar    
  13 N13            5.3060    -3.4294    -0.8404 N.pl3   
  14 N14           -0.6589     2.8042    -1.2032 N.pl3   
  15 C15           -1.9512     2.1140    -1.2032 C.3     
  16 C16           -3.0789     3.1431    -1.3045 C.3     
  17 N17           -4.3747     2.4510    -1.3045 N.3     
  18 C18            6.5148    -4.1353    -0.8808 C.ar    
  19 C19            6.6324    -5.3500    -0.2183 C.ar    
  20 C20            7.5947    -3.6237    -1.5881 C.ar    
  21 C21            8.7864    -4.3203    -1.6274 C.ar    
  22 C22            8.9047    -5.5311    -0.9610 C.ar    
  23 C23            7.8248    -6.0454    -0.2586 C.ar    
  24 O24           10.0783    -6.2170    -1.0010 O.3     
  25 C25           13.8757    -7.5680    -0.2345 C.3     
  26 N26           12.5166    -7.2199     0.2011 N.3     
  27 C27           11.5187    -8.0781    -0.4513 C.3     
  28 C28           10.1296    -7.4567    -0.2922 C.3     
  29 C29           12.3978    -7.2924     1.6635 C.3     
  30 H30           -0.4934     0.1771    -1.0297 H       
  31 H31            3.7547     2.6053    -1.0601 H       
  32 H32            1.6194    -1.1132    -0.8904 H       
  33 H33            5.3538     1.7189    -0.7739 H       
  34 H34            7.4686     0.4276    -0.6474 H       
  35 H35            4.4638    -3.9104    -0.8225 H       
  36 H36           -0.6258     3.7718    -1.2622 H       
  37 H37           -2.0008     1.4356    -2.0549 H       
  38 H38           -2.0597     1.5459    -0.2793 H       
  39 H39           -3.0293     3.8215    -0.4528 H       
  40 H40           -2.9704     3.7112    -2.2284 H       
  41 H41           -4.4723     1.8662    -0.4881 H       
  42 H42           -5.1363     3.1096    -1.3707 H       
  43 H43            5.7917    -5.7505     0.3287 H       
  44 H44            7.5025    -2.6813    -2.1076 H       
  45 H45            9.6264    -3.9226    -2.1775 H       
  46 H46            7.9177    -6.9882     0.2601 H       
  47 H47           13.9310    -7.5239    -1.3222 H       
  48 H48           14.5867    -6.8619     0.1944 H       
  49 H49           14.1177    -8.5764     0.1010 H       
  50 H50           11.7561    -8.1704    -1.5111 H       
  51 H51           11.5303    -9.0651     0.0110 H       
  52 H52            9.9297    -7.2797     0.7646 H       
  53 H53            9.3790    -8.1369    -0.6949 H       
  54 H54           13.1481    -6.6478     2.1214 H       
  55 H55           11.4033    -6.9626     1.9640 H       
  56 H56           12.5538    -8.3205     1.9902 H       
@<TRIPOS>BOND
   1    1    2 ar
   2    1    3 ar
   3    1   14 1
   4    2    6 ar
   5    2   30 1
   6    3    4 ar
   7    4    5 ar
   8    4   31 1
   9    5    6 ar
  10    5    7 1
  11    6   32 1
  12    7    8 ar
  13    7    9 ar
  14    8   12 ar
  15    8   33 1
  16    9   10 ar
  17   10   11 ar
  18   10   13 1
  19   11   12 ar
  20   12   34 1
  21   13   18 1
  22   13   35 1
  23   14   15 1
  24   14   36 1
  25   15   16 1
  26   15   37 1
  27   15   38 1
  28   16   17 1
  29   16   39 1
  30   16   40 1
  31   17   41 1
  32   17   42 1
  33   18   19 ar
  34   18   20 ar
  35   19   23 ar
  36   19   43 1
  37   20   21 ar
  38   20   44 1
  39   21   22 ar
  40   21   45 1
  41   22   23 ar
  42   22   24 1
  43   23   46 1
  44   24   28 1
  45   25   26 1
  46   25   47 1
  47   25   48 1
  48   25   49 1
  49   26   27 1
  50   26   29 1
  51   27   28 1
  52   27   50 1
  53   27   51 1
  54   28   52 1
  55   28   53 1
  56   29   54 1
  57   29   55 1
  58   29   56 1

#	End of record

