#	Name: ASD01410592
#	Creating user name:	WinNT
#	Creation time:	15. 06. 2019 19:18

#	Modifying user name:	WinNT
#	Modification time:	15. 06. 2019 19:18

#	Program:	/corina/corina34_cracker 3.40 0067  02.08.2006

@<TRIPOS>MOLECULE
ASD01410592
  62   64    0    0    0
SMALL
NO_CHARGES


@<TRIPOS>ATOM
   1 N1             3.4940     0.2974    -2.2937 N.2     
   2 C2             2.9903    -0.8571    -1.9917 C.2     
   3 O3             2.5864    -1.2276    -0.7522 O.3     
   4 C4             1.9994    -2.4457    -0.6096 C.ar    
   5 C5             2.7608    -3.6010    -0.7402 C.ar    
   6 C6             2.1749    -4.8425    -0.5974 C.ar    
   7 C7             0.8185    -4.9454    -0.3219 C.ar    
   8 C8             0.0442    -3.7828    -0.1889 C.ar    
   9 C9             0.6477    -2.5308    -0.3296 C.ar    
  10 N10            0.2273    -6.1997    -0.1783 N.am    
  11 C11            0.1588    -6.7772     1.0376 C.2     
  12 C12           -0.3196    -6.8902    -1.3489 C.3     
  13 O13           -0.2769    -7.9034     1.1504 O.2     
  14 C14            0.6237    -6.0235     2.2570 C.3     
  15 C15            1.2462    -7.0021     3.2549 C.3     
  16 C16            1.7181    -6.2369     4.4928 C.3     
  17 C17            0.5249    -5.5347     5.1440 C.3     
  18 C18           -0.0976    -4.5561     4.1461 C.3     
  19 C19           -0.5696    -5.3213     2.9081 C.3     
  20 C20            0.9968    -4.7695     6.3820 C.3     
  21 C21           -0.3138    -5.9415    -2.5493 C.3     
  22 O22            0.4250    -9.0639    -0.6001 O.3     
  23 C23            0.5384    -8.1171    -1.6643 C.3     
  24 C24            1.1919   -10.2536    -0.7964 C.3     
  25 O25           -1.2071    -4.8541    -2.3014 O.3     
  26 C26           -1.2766    -3.9045    -3.3670 C.3     
  27 S27            2.9086    -1.8454    -3.3844 S.3     
  28 C28            3.6068    -0.5522    -4.3559 C.2     
  29 C29            3.8343     0.4900    -3.5550 C.2     
  30 C30           -1.3971    -3.8819     0.1032 C.2     
  31 O31           -1.9015    -4.9675     0.3120 O.2     
  32 O32           -2.1556    -2.7686     0.1386 O.3     
  33 H33            3.8167    -3.5270    -0.9549 H       
  34 H34            2.7732    -5.7357    -0.7007 H       
  35 H35            0.0583    -1.6315    -0.2282 H       
  36 H36           -1.3418    -7.2056    -1.1400 H       
  37 H37            1.3665    -5.2815     1.9642 H       
  38 H38            0.5034    -7.7441     3.5476 H       
  39 H39            2.0963    -7.5024     2.7910 H       
  40 H40            2.1616    -6.9341     5.2037 H       
  41 H41            2.4609    -5.4949     4.2001 H       
  42 H42           -0.2179    -6.2767     5.4367 H       
  43 H43           -0.9477    -4.0558     4.6100 H       
  44 H44            0.6452    -3.8140     3.8533 H       
  45 H45           -1.0130    -4.6241     2.1972 H       
  46 H46           -1.3124    -6.0633     3.2009 H       
  47 H47            1.7396    -4.0274     6.0892 H       
  48 H48            0.1467    -4.2692     6.8458 H       
  49 H49            1.4403    -5.4666     7.0928 H       
  50 H50            0.6942    -5.5560    -2.7029 H       
  51 H51           -0.6361    -6.4807    -3.4401 H       
  52 H52            0.1945    -8.5718    -2.5934 H       
  53 H53            1.5799    -7.8142    -1.7718 H       
  54 H54            2.2470    -9.9951    -0.8858 H       
  55 H55            1.0521   -10.9206     0.0543 H       
  56 H56            0.8616   -10.7527    -1.7074 H       
  57 H57           -1.9753    -3.1110    -3.1016 H       
  58 H58           -0.2887    -3.4767    -3.5375 H       
  59 H59           -1.6190    -4.4014    -4.2747 H       
  60 H60            3.8148    -0.5957    -5.4148 H       
  61 H61            4.2620     1.4162    -3.9093 H       
  62 H62           -3.0955    -2.8838     0.3342 H       
@<TRIPOS>BOND
   1    1    2 2
   2    1   29 1
   3    2    3 1
   4    2   27 1
   5    3    4 1
   6    4    5 ar
   7    4    9 ar
   8    5    6 ar
   9    5   33 1
  10    6    7 ar
  11    6   34 1
  12    7    8 ar
  13    7   10 1
  14    8    9 ar
  15    8   30 1
  16    9   35 1
  17   10   11 am
  18   10   12 1
  19   11   13 2
  20   11   14 1
  21   12   21 1
  22   12   23 1
  23   12   36 1
  24   14   15 1
  25   14   19 1
  26   14   37 1
  27   15   16 1
  28   15   38 1
  29   15   39 1
  30   16   17 1
  31   16   40 1
  32   16   41 1
  33   17   18 1
  34   17   20 1
  35   17   42 1
  36   18   19 1
  37   18   43 1
  38   18   44 1
  39   19   45 1
  40   19   46 1
  41   20   47 1
  42   20   48 1
  43   20   49 1
  44   21   25 1
  45   21   50 1
  46   21   51 1
  47   22   23 1
  48   22   24 1
  49   23   52 1
  50   23   53 1
  51   24   54 1
  52   24   55 1
  53   24   56 1
  54   25   26 1
  55   26   57 1
  56   26   58 1
  57   26   59 1
  58   27   28 1
  59   28   29 2
  60   28   60 1
  61   29   61 1
  62   30   31 2
  63   30   32 1
  64   32   62 1

#	End of record

