#	Name: ASD09740468
#	Creating user name:	WinNT
#	Creation time:	15. 06. 2019 21:23

#	Modifying user name:	WinNT
#	Modification time:	15. 06. 2019 21:23

#	Program:	/corina/corina34_cracker 3.40 0067  02.08.2006

@<TRIPOS>MOLECULE
ASD09740468
  63   66    0    0    0
SMALL
NO_CHARGES


@<TRIPOS>ATOM
   1 N1            -0.0881     1.3324    -0.0174 N.2     
   2 C2            -0.1188     0.0237    -0.0593 C.2     
   3 C3             1.0833     1.8984     0.0654 C.2     
   4 S4             2.3288     0.6532     0.0968 S.3     
   5 C5             1.0838    -0.5898    -0.0109 C.2     
   6 C6             1.3277     3.3545     0.1230 C.ar    
   7 C7             0.2555     4.2423     0.0900 C.ar    
   8 C8             2.6355     3.8409     0.2164 C.ar    
   9 C9             2.8691     5.1977     0.2708 C.ar    
  10 C10            1.8084     6.0919     0.2334 C.ar    
  11 C11            0.4920     5.6153     0.1446 C.ar    
  12 O12            2.0442     7.4267     0.2878 O.3     
  13 C13            3.3954     7.8385     0.5038 C.3     
  14 C14            4.1354     7.8825    -0.8346 C.3     
  15 C15            3.4090     9.2299     1.1400 C.3     
  16 C16           -0.6044     6.5355     0.1059 C.1     
  17 N17           -1.4742     7.2656     0.0751 N.1     
  18 C18            1.3153    -2.0492    -0.0420 C.ar    
  19 C19            2.2439    -2.5919    -0.9357 C.ar    
  20 C20            2.4555    -3.9546    -0.9594 C.ar    
  21 C21            1.7476    -4.7799    -0.0988 C.ar    
  22 C22            0.8279    -4.2485     0.7856 C.ar    
  23 C23            0.6119    -2.8863     0.8239 C.ar    
  24 C24            3.1292    -1.9167    -1.9608 C.3     
  25 C25            4.2142    -2.9590    -2.3059 C.3     
  26 C26            3.4987    -4.2927    -2.0032 C.3     
  27 N27            2.8571    -4.8116    -3.2137 N.am    
  28 S28            3.3803    -6.2326    -3.8840 S.o2    
  29 O29            2.5617    -6.4002    -5.0334 O.2     
  30 O30            4.7864    -6.0667    -4.0039 O.2     
  31 C31            2.9918    -7.4913    -2.6369 C.3     
  32 C32            3.5421    -8.8451    -3.0901 C.3     
  33 C33            3.2194    -9.8908    -2.0540 C.2     
  34 O34            3.6071   -11.1623    -2.2403 O.3     
  35 O35            2.6116    -9.5847    -1.0556 O.2     
  36 C36            3.2619   -12.1158    -1.2011 C.3     
  37 H37           -1.0444    -0.5286    -0.1277 H       
  38 H38           -0.7556     3.8688     0.0221 H       
  39 H39            3.4654     3.1505     0.2463 H       
  40 H40            3.8815     5.5668     0.3432 H       
  41 H41            3.8893     7.1301     1.1689 H       
  42 H42            5.1661     8.1966    -0.6699 H       
  43 H43            4.1257     6.8912    -1.2879 H       
  44 H44            3.6416     8.5909    -1.4997 H       
  45 H45            2.8819     9.1986     2.0935 H       
  46 H46            4.4397     9.5440     1.3048 H       
  47 H47            2.9152     9.9384     0.4749 H       
  48 H48            1.9160    -5.8465    -0.1200 H       
  49 H49            0.2814    -4.9000     1.4514 H       
  50 H50           -0.1066    -2.4708     1.5148 H       
  51 H51            2.5524    -1.6625    -2.8501 H       
  52 H52            3.5853    -1.0223    -1.5364 H       
  53 H53            4.4900    -2.8973    -3.3586 H       
  54 H54            5.0885    -2.8344    -1.6670 H       
  55 H55            4.2072    -5.0207    -1.6080 H       
  56 H56            2.1258    -4.3227    -3.6226 H       
  57 H57            3.4473    -7.2137    -1.6863 H       
  58 H58            1.9108    -7.5608    -2.5152 H       
  59 H59            3.0866    -9.1227    -4.0406 H       
  60 H60            4.6230    -8.7756    -3.2117 H       
  61 H61            2.1784   -12.1536    -1.0881 H       
  62 H62            3.6331   -13.1031    -1.4759 H       
  63 H63            3.7149   -11.8065    -0.2592 H       
@<TRIPOS>BOND
   1    1    2 1
   2    1    3 2
   3    2    5 2
   4    2   37 1
   5    3    4 1
   6    3    6 1
   7    4    5 1
   8    5   18 1
   9    6    7 ar
  10    6    8 ar
  11    7   11 ar
  12    7   38 1
  13    8    9 ar
  14    8   39 1
  15    9   10 ar
  16    9   40 1
  17   10   11 ar
  18   10   12 1
  19   11   16 1
  20   12   13 1
  21   13   14 1
  22   13   15 1
  23   13   41 1
  24   14   42 1
  25   14   43 1
  26   14   44 1
  27   15   45 1
  28   15   46 1
  29   15   47 1
  30   16   17 3
  31   18   19 ar
  32   18   23 ar
  33   19   20 ar
  34   19   24 1
  35   20   21 ar
  36   20   26 1
  37   21   22 ar
  38   21   48 1
  39   22   23 ar
  40   22   49 1
  41   23   50 1
  42   24   25 1
  43   24   51 1
  44   24   52 1
  45   25   26 1
  46   25   53 1
  47   25   54 1
  48   26   27 1
  49   26   55 1
  50   27   28 am
  51   27   56 1
  52   28   29 2
  53   28   30 2
  54   28   31 1
  55   31   32 1
  56   31   57 1
  57   31   58 1
  58   32   33 1
  59   32   59 1
  60   32   60 1
  61   33   34 1
  62   33   35 2
  63   34   36 1
  64   36   61 1
  65   36   62 1
  66   36   63 1

#	End of record

