#	Name: ASD01880442
#	Creating user name:	WinNT
#	Creation time:	15. 06. 2019 19:40

#	Modifying user name:	WinNT
#	Modification time:	15. 06. 2019 19:40

#	Program:	/corina/corina34_cracker 3.40 0067  02.08.2006

@<TRIPOS>MOLECULE
ASD01880442
  44   48    0    0    0
SMALL
NO_CHARGES


@<TRIPOS>ATOM
   1 C1            -0.0169     1.3927     0.0097 C.ar    
   2 C2             0.0021    -0.0041     0.0020 C.ar    
   3 C3             1.2135    -0.6907    -0.0132 C.ar    
   4 C4             2.4022     0.0193    -0.0208 C.ar    
   5 C5             2.3727     1.4246    -0.0130 C.ar    
   6 C6             1.1522     2.0999     0.0023 C.ar    
   7 N7             3.6286    -0.6376    -0.0355 N.pl3   
   8 C8             4.7929     0.0687    -0.0425 C.2     
   9 N9             4.8015     1.4562    -0.0353 N.am    
  10 C10            3.6502     2.1585    -0.0210 C.2     
  11 N11            3.9493    -2.0026    -0.0451 N.2     
  12 C12            5.2606    -2.1201    -0.0575 C.2     
  13 C13            5.8179    -0.8301    -0.0562 C.2     
  14 C14            6.0812     2.1693    -0.0430 C.3     
  15 O15            3.6662     3.3751    -0.0148 O.2     
  16 C16           -1.2742    -0.7594     0.0106 C.ar    
  17 C17            6.0195    -3.3953    -0.0707 C.ar    
  18 C18            5.3414    -4.6121    -0.0711 C.ar    
  19 C19            6.0530    -5.7963    -0.0838 C.ar    
  20 C20            7.4370    -5.7742    -0.0962 C.ar    
  21 C21            8.1143    -4.5681    -0.0954 C.ar    
  22 C22            7.4129    -3.3796    -0.0885 C.ar    
  23 Cl23           5.2103    -7.3140    -0.0837 Cl      
  24 C24           -2.4901    -0.0782     0.0264 C.ar    
  25 C25           -3.6747    -0.7862     0.0339 C.ar    
  26 C26           -3.6568    -2.1694     0.0262 C.ar    
  27 C27           -2.4530    -2.8508     0.0106 C.ar    
  28 C28           -1.2623    -2.1531    -0.0028 C.ar    
  29 H29           -0.9612     1.9167     0.0170 H       
  30 H30            1.2257    -1.7706    -0.0188 H       
  31 H31            1.1314     3.1797     0.0083 H       
  32 H32            6.8715    -0.5928    -0.0649 H       
  33 H33            6.3894     2.3516    -1.0725 H       
  34 H34            5.9699     3.1209     0.4768 H       
  35 H35            6.8363     1.5661     0.4610 H       
  36 H36            4.2616    -4.6299    -0.0611 H       
  37 H37            7.9899    -6.7019    -0.1061 H       
  38 H38            9.1942    -4.5565    -0.1047 H       
  39 H39            7.9432    -2.4388    -0.0882 H       
  40 H40           -2.5053     1.0017     0.0331 H       
  41 H41           -4.6174    -0.2595     0.0461 H       
  42 H42           -4.5862    -2.7195     0.0329 H       
  43 H43           -2.4450    -3.9307     0.0047 H       
  44 H44           -0.3231    -2.6861    -0.0150 H       
@<TRIPOS>BOND
   1    1    2 ar
   2    1    6 ar
   3    1   29 1
   4    2    3 ar
   5    2   16 1
   6    3    4 ar
   7    3   30 1
   8    4    5 ar
   9    4    7 1
  10    5    6 ar
  11    5   10 1
  12    6   31 1
  13    7    8 1
  14    7   11 1
  15    8    9 1
  16    8   13 2
  17    9   10 am
  18    9   14 1
  19   10   15 2
  20   11   12 2
  21   12   13 1
  22   12   17 1
  23   13   32 1
  24   14   33 1
  25   14   34 1
  26   14   35 1
  27   16   24 ar
  28   16   28 ar
  29   17   18 ar
  30   17   22 ar
  31   18   19 ar
  32   18   36 1
  33   19   20 ar
  34   19   23 1
  35   20   21 ar
  36   20   37 1
  37   21   22 ar
  38   21   38 1
  39   22   39 1
  40   24   25 ar
  41   24   40 1
  42   25   26 ar
  43   25   41 1
  44   26   27 ar
  45   26   42 1
  46   27   28 ar
  47   27   43 1
  48   28   44 1

#	End of record

