#	Name: ASD01915410
#	Creating user name:	WinNT
#	Creation time:	15. 06. 2019 20:05

#	Modifying user name:	WinNT
#	Modification time:	15. 06. 2019 20:05

#	Program:	/corina/corina34_cracker 3.40 0067  02.08.2006

@<TRIPOS>MOLECULE
ASD01915410
  29   30    0    0    0
SMALL
NO_CHARGES


@<TRIPOS>ATOM
   1 C1            -0.0544     1.4333     0.0001 C.ar    
   2 C2            -1.3193     1.9868     0.0127 C.ar    
   3 N3            -2.3931     1.2203     0.0225 N.ar    
   4 C4            -2.3035    -0.1003     0.0203 C.ar    
   5 C5            -1.0615    -0.7255     0.0078 C.ar    
   6 C6             0.0830     0.0517    -0.0081 C.ar    
   7 N7            -3.4641    -0.8708     0.0309 N.am    
   8 C8            -4.6675    -0.2752     0.1478 C.2     
   9 C9            -5.9035    -1.0794     0.0443 C.ar    
  10 O10           -4.7364     0.9233     0.3383 O.2     
  11 C11           -5.8258    -2.4565    -0.1745 C.ar    
  12 C12           -6.9814    -3.2105    -0.2711 C.ar    
  13 C13           -8.2194    -2.6064    -0.1517 C.ar    
  14 C14           -8.3093    -1.2293     0.0674 C.ar    
  15 C15           -7.1482    -0.4658     0.1707 C.ar    
  16 F16           -6.9002    -4.5422    -0.4833 F       
  17 C17            1.1643     2.3196    -0.0111 C.3     
  18 C18           -9.5920    -0.6047     0.1904 C.1     
  19 N19          -10.6096    -0.1092     0.2880 N.1     
  20 H20           -1.4311     3.0610     0.0150 H       
  21 H21           -0.9912    -1.8033     0.0067 H       
  22 H22            1.0612    -0.4059    -0.0184 H       
  23 H23           -3.4062    -1.8361    -0.0458 H       
  24 H24           -4.8615    -2.9336    -0.2689 H       
  25 H25           -9.1184    -3.1999    -0.2283 H       
  26 H26           -7.2129     0.5989     0.3401 H       
  27 H27            1.4681     2.5325     1.0138 H       
  28 H28            1.9766     1.8139    -0.5332 H       
  29 H29            0.9298     3.2535    -0.5220 H       
@<TRIPOS>BOND
   1    1    2 ar
   2    1   17 1
   3    1    6 ar
   4    2    3 ar
   5    2   20 1
   6    3    4 ar
   7    4    5 ar
   8    4    7 1
   9    5    6 ar
  10    5   21 1
  11    6   22 1
  12    7    8 am
  13    7   23 1
  14    8    9 1
  15    8   10 2
  16    9   11 ar
  17    9   15 ar
  18   11   12 ar
  19   11   24 1
  20   12   13 ar
  21   12   16 1
  22   13   14 ar
  23   13   25 1
  24   14   15 ar
  25   14   18 1
  26   15   26 1
  27   17   27 1
  28   17   28 1
  29   17   29 1
  30   18   19 3

#	End of record

