#	Name: ASD02508044
#	Creating user name:	WinNT
#	Creation time:	15. 06. 2019 20:23

#	Modifying user name:	WinNT
#	Modification time:	15. 06. 2019 20:23

#	Program:	/corina/corina34_cracker 3.40 0067  02.08.2006

@<TRIPOS>MOLECULE
ASD02508044
  33   35    0    0    0
SMALL
NO_CHARGES


@<TRIPOS>ATOM
   1 C1             0.7308     2.1326     0.0787 C.ar    
   2 C2             0.4553     0.7792     0.1953 C.ar    
   3 C3             2.0453     2.5686    -0.0858 C.ar    
   4 C4             3.0766     1.6442    -0.1321 C.ar    
   5 C5             2.7967     0.2907    -0.0147 C.ar    
   6 C6             1.4849    -0.1396     0.1486 C.ar    
   7 N7            -0.0710     3.2768     0.0815 N.am    
   8 C8             0.7425     4.3407    -0.0696 C.2     
   9 O9             2.0134     3.9212    -0.1713 O.3     
  10 N10            3.8370    -0.6436    -0.0612 N.am    
  11 S11            3.9030    -1.8654     1.0546 S.o2    
  12 C12            4.0712    -1.1153     2.6401 C.2     
  13 S13            5.5959    -0.6614     3.3904 S.3     
  14 C14           -1.5287     3.3134     0.2223 C.3     
  15 O15            0.3806     5.5009    -0.1116 O.2     
  16 O16            2.6274    -2.4914     1.0402 O.2     
  17 O17            5.1153    -2.5658     0.8114 O.2     
  18 C18           -1.8954     3.4213     1.7038 C.3     
  19 C19            3.0614    -0.7996     3.4524 C.2     
  20 C20            3.4370    -0.2164     4.6504 C.2     
  21 C21            4.7516    -0.0567     4.8099 C.2     
  22 H22           -0.5633     0.4437     0.3230 H       
  23 H23            4.0962     1.9769    -0.2596 H       
  24 H24            1.2709    -1.1942     0.2396 H       
  25 H25            4.5195    -0.5757    -0.7471 H       
  26 H26           -1.9240     4.1763    -0.3136 H       
  27 H27           -1.9568     2.4008    -0.1924 H       
  28 H28           -2.9800     3.4485     1.8086 H       
  29 H29           -1.5001     2.5583     2.2397 H       
  30 H30           -1.4673     4.3339     2.1186 H       
  31 H31            2.0291    -0.9847     3.1949 H       
  32 H32            2.7198     0.0880     5.3982 H       
  33 H33            5.2251     0.3788     5.6775 H       
@<TRIPOS>BOND
   1    1    2 ar
   2    1    3 ar
   3    1    7 1
   4    2    6 ar
   5    2   22 1
   6    3    4 ar
   7    3    9 1
   8    4    5 ar
   9    4   23 1
  10    5    6 ar
  11    5   10 1
  12    6   24 1
  13    7    8 am
  14    7   14 1
  15    8    9 1
  16    8   15 2
  17   10   11 am
  18   10   25 1
  19   11   12 1
  20   11   16 2
  21   11   17 2
  22   12   13 1
  23   12   19 2
  24   13   21 1
  25   14   18 1
  26   14   26 1
  27   14   27 1
  28   18   28 1
  29   18   29 1
  30   18   30 1
  31   19   20 1
  32   19   31 1
  33   20   21 2
  34   20   32 1
  35   21   33 1

#	End of record

