#	Name: ASD02500204
#	Creating user name:	WinNT
#	Creation time:	15. 06. 2019 20:22

#	Modifying user name:	WinNT
#	Modification time:	15. 06. 2019 20:22

#	Program:	/corina/corina34_cracker 3.40 0067  02.08.2006

@<TRIPOS>MOLECULE
ASD02500204
  72   76    0    0    0
SMALL
NO_CHARGES


@<TRIPOS>ATOM
   1 N1            -3.8250     6.1417    -1.1483 N.ar    
   2 C2            -4.5950     6.8185    -1.9651 C.ar    
   3 C3            -5.9840     6.7850    -1.8601 C.ar    
   4 C4            -6.5760     6.0320    -0.8867 C.ar    
   5 C5            -5.7459     5.3060    -0.0115 C.ar    
   6 C6            -6.2822     4.5106     1.0135 C.ar    
   7 C7            -5.4456     3.8238     1.8398 C.ar    
   8 C8            -4.0635     3.9001     1.6820 C.ar    
   9 C9            -3.5098     4.6615     0.6990 C.ar    
  10 C10           -4.3404     5.3852    -0.1740 C.ar    
  11 S11           -1.7585     4.7406     0.5222 S.o2    
  12 O12           -1.4243     6.1199     0.4508 O.2     
  13 O13           -1.2167     3.8591     1.4962 O.2     
  14 N14           -1.3851     4.0918    -0.9549 N.am    
  15 C15           -1.5796     2.7348    -1.1874 C.ar    
  16 C16           -0.7177     2.0448    -2.0359 C.ar    
  17 C17           -0.9075     0.7020    -2.2680 C.ar    
  18 C18           -1.9671     0.0303    -1.6509 C.ar    
  19 C19           -2.8305     0.7257    -0.7996 C.ar    
  20 C20           -2.6320     2.0676    -0.5670 C.ar    
  21 C21            0.4238     2.7697    -2.7011 C.3     
  22 C22           -2.1736    -1.4093    -1.8979 C.2     
  23 O23           -2.0471    -1.8577    -3.0211 O.2     
  24 N24           -2.5026    -2.2276    -0.8788 N.am    
  25 C25           -2.6281    -3.6761    -1.0931 C.3     
  26 C26           -1.7063    -4.3996    -0.1036 C.3     
  27 N27           -1.9454    -3.8594     1.2421 N.am    
  28 C28           -1.8199    -2.4108     1.4564 C.3     
  29 C29           -2.7362    -1.6880     0.4681 C.3     
  30 C30           -2.2743    -4.6776     2.2612 C.2     
  31 C31           -2.3951    -4.1286     3.6595 C.3     
  32 C32           -2.6750    -5.2738     4.6347 C.3     
  33 O33           -2.4731    -5.8558     2.0531 O.2     
  34 C34           -1.0886    -3.4345     4.0495 C.3     
  35 C35           -3.5271    -3.1352     3.7130 C.ar    
  36 C36           -3.7219    -2.3706     4.8482 C.ar    
  37 C37           -4.7594    -1.4591     4.8983 C.ar    
  38 C38           -5.6039    -1.3117     3.8110 C.ar    
  39 C39           -5.4078    -2.0780     2.6746 C.ar    
  40 C40           -4.3665    -2.9852     2.6248 C.ar    
  41 F41           -6.6187    -0.4212     3.8590 F       
  42 H42           -4.1407     7.4184    -2.7398 H       
  43 H43           -6.5919     7.3543    -2.5478 H       
  44 H44           -7.6511     5.9947    -0.7907 H       
  45 H45           -7.3519     4.4441     1.1461 H       
  46 H46           -5.8590     3.2121     2.6280 H       
  47 H47           -3.4211     3.3465     2.3506 H       
  48 H48           -1.0308     4.6585    -1.6579 H       
  49 H49           -0.2389     0.1674    -2.9265 H       
  50 H50           -3.6499     0.2096    -0.3214 H       
  51 H51           -3.2960     2.6045     0.0943 H       
  52 H52            1.3062     2.7210    -2.0630 H       
  53 H53            0.6427     2.3003    -3.6602 H       
  54 H54            0.1483     3.8121    -2.8612 H       
  55 H55           -3.6601    -3.9830    -0.9231 H       
  56 H56           -2.3341    -3.9217    -2.1136 H       
  57 H57           -1.9251    -5.4673    -0.1134 H       
  58 H58           -0.6662    -4.2343    -0.3847 H       
  59 H59           -2.1139    -2.1652     2.4769 H       
  60 H60           -0.7879    -2.1039     1.2864 H       
  61 H61           -2.5137    -0.6210     0.4785 H       
  62 H62           -3.7761    -1.8501     0.7518 H       
  63 H63           -1.8185    -5.9476     4.6593 H       
  64 H64           -2.8470    -4.8682     5.6316 H       
  65 H65           -3.5589    -5.8216     4.3077 H       
  66 H66           -0.8361    -2.6866     3.2978 H       
  67 H67           -1.2099    -2.9495     5.0181 H       
  68 H68           -0.2891    -4.1728     4.1104 H       
  69 H69           -3.0633    -2.4860     5.6963 H       
  70 H70           -4.9116    -0.8621     5.7854 H       
  71 H71           -6.0659    -1.9639     1.8259 H       
  72 H72           -4.2108    -3.5801     1.7370 H       
@<TRIPOS>BOND
   1    1    2 ar
   2    1   10 ar
   3    2    3 ar
   4    2   42 1
   5    3    4 ar
   6    3   43 1
   7    4    5 ar
   8    4   44 1
   9    5    6 ar
  10    5   10 ar
  11    6    7 ar
  12    6   45 1
  13    7    8 ar
  14    7   46 1
  15    8    9 ar
  16    8   47 1
  17    9   10 ar
  18    9   11 1
  19   11   12 2
  20   11   13 2
  21   11   14 am
  22   14   15 1
  23   14   48 1
  24   15   16 ar
  25   15   20 ar
  26   16   17 ar
  27   16   21 1
  28   17   18 ar
  29   17   49 1
  30   18   19 ar
  31   18   22 1
  32   19   20 ar
  33   19   50 1
  34   20   51 1
  35   21   52 1
  36   21   53 1
  37   21   54 1
  38   22   23 2
  39   22   24 am
  40   24   25 1
  41   24   29 1
  42   25   26 1
  43   25   55 1
  44   25   56 1
  45   26   27 1
  46   26   57 1
  47   26   58 1
  48   27   28 1
  49   27   30 am
  50   28   29 1
  51   28   59 1
  52   28   60 1
  53   29   61 1
  54   29   62 1
  55   30   31 1
  56   30   33 2
  57   31   32 1
  58   31   34 1
  59   31   35 1
  60   32   63 1
  61   32   64 1
  62   32   65 1
  63   34   66 1
  64   34   67 1
  65   34   68 1
  66   35   36 ar
  67   35   40 ar
  68   36   37 ar
  69   36   69 1
  70   37   38 ar
  71   37   70 1
  72   38   39 ar
  73   38   41 1
  74   39   40 ar
  75   39   71 1
  76   40   72 1

#	End of record

