#	Name: ASD01910414
#	Creating user name:	WinNT
#	Creation time:	15. 06. 2019 19:55

#	Modifying user name:	WinNT
#	Modification time:	15. 06. 2019 19:55

#	Program:	/corina/corina34_cracker 3.40 0067  02.08.2006

@<TRIPOS>MOLECULE
ASD01910414
  48   50    0    0    0
SMALL
NO_CHARGES


@<TRIPOS>ATOM
   1 C1             0.2010     1.6456     0.8968 C.ar    
   2 C2            -0.8717     2.3002     0.3094 C.ar    
   3 C3            -2.0545     1.6239     0.0844 C.ar    
   4 C4            -2.1697     0.2884     0.4458 C.ar    
   5 C5            -1.0955    -0.3663     1.0332 C.ar    
   6 C6             0.0883     0.3098     1.2532 C.ar    
   7 N7            -3.3700    -0.3985     0.2181 N.am    
   8 C8            -4.5472     0.2493     0.3220 C.2     
   9 O9            -5.6931    -0.3807     0.0005 O.3     
  10 O10           -4.5747     1.4020     0.7057 O.2     
  11 C11           -7.4878     0.1887     1.5480 C.3     
  12 C12           -6.9233     0.3784     0.1366 C.3     
  13 C13           -7.9458    -0.1178    -0.8883 C.3     
  14 C14           -9.2314     0.7036    -0.7678 C.3     
  15 C15           -9.8220     0.5175     0.6334 C.3     
  16 N16           -8.7948     0.8550     1.6282 N.am    
  17 C17           -9.0465     1.7590     2.5956 C.2     
  18 O18           -8.2169     1.9732     3.4581 O.2     
  19 C19          -10.3304     2.4895     2.6080 C.ar    
  20 C20          -11.5297     1.8020     2.4100 C.ar    
  21 C21          -12.7249     2.4885     2.4225 C.ar    
  22 C22          -12.7378     3.8593     2.6310 C.ar    
  23 C23          -11.5498     4.5469     2.8276 C.ar    
  24 C24          -10.3496     3.8692     2.8233 C.ar    
  25 F25          -13.9119     4.5274     2.6423 F       
  26 O26            1.3654     2.3121     1.1181 O.3     
  27 C27            2.4286     1.5763     1.7265 C.3     
  28 H28           -0.7819     3.3392     0.0284 H       
  29 H29           -2.8898     2.1339    -0.3722 H       
  30 H30           -1.1846    -1.4052     1.3148 H       
  31 H31            0.9240    -0.1994     1.7102 H       
  32 H32           -3.3534    -1.3401    -0.0142 H       
  33 H33           -7.6067    -0.8751     1.7541 H       
  34 H34           -6.8073     0.6301     2.2761 H       
  35 H35           -6.7200     1.4355    -0.0348 H       
  36 H36           -7.5366    -0.0067    -1.8925 H       
  37 H37           -8.1672    -1.1685    -0.7009 H       
  38 H38           -9.0063     1.7576    -0.9307 H       
  39 H39           -9.9506     0.3652    -1.5136 H       
  40 H40          -10.6816     1.1760     0.7580 H       
  41 H41          -10.1313    -0.5194     0.7648 H       
  42 H42          -11.5208     0.7344     2.2472 H       
  43 H43          -13.6529     1.9579     2.2691 H       
  44 H44          -11.5654     5.6146     2.9893 H       
  45 H45           -9.4249     4.4056     2.9769 H       
  46 H46            2.1077     1.2150     2.7036 H       
  47 H47            2.6921     0.7285     1.0942 H       
  48 H48            3.2970     2.2242     1.8460 H       
@<TRIPOS>BOND
   1    1    2 ar
   2    1   26 1
   3    1    6 ar
   4    2    3 ar
   5    2   28 1
   6    3    4 ar
   7    3   29 1
   8    4    5 ar
   9    4    7 1
  10    5    6 ar
  11    5   30 1
  12    6   31 1
  13    7    8 am
  14    7   32 1
  15    8    9 1
  16    8   10 2
  17    9   12 1
  18   11   12 1
  19   11   16 1
  20   11   33 1
  21   11   34 1
  22   12   13 1
  23   12   35 1
  24   13   14 1
  25   13   36 1
  26   13   37 1
  27   14   15 1
  28   14   38 1
  29   14   39 1
  30   15   16 1
  31   15   40 1
  32   15   41 1
  33   16   17 am
  34   17   18 2
  35   17   19 1
  36   19   20 ar
  37   19   24 ar
  38   20   21 ar
  39   20   42 1
  40   21   22 ar
  41   21   43 1
  42   22   23 ar
  43   22   25 1
  44   23   24 ar
  45   23   44 1
  46   24   45 1
  47   26   27 1
  48   27   46 1
  49   27   47 1
  50   27   48 1

#	End of record

