#	Name: ASD01148093
#	Creating user name:	WinNT
#	Creation time:	15. 06. 2019 19:02

#	Modifying user name:	WinNT
#	Modification time:	15. 06. 2019 19:02

#	Program:	/corina/corina34_cracker 3.40 0067  02.08.2006

@<TRIPOS>MOLECULE
ASD01148093
  30   32    0    0    0
SMALL
NO_CHARGES


@<TRIPOS>ATOM
   1 C1            -0.0156     1.2961     0.0092 C.2     
   2 N2             0.0021    -0.0041     0.0020 N.2     
   3 C3             1.2882    -0.4433    -0.0126 C.ar    
   4 C4             2.1122     0.6976    -0.0144 C.ar    
   5 N5             1.2588     1.7822    -0.0004 N.pl3   
   6 C6             1.8686    -1.7100    -0.0250 C.ar    
   7 C7             3.2559    -1.8286    -0.0389 C.ar    
   8 C8             4.0610    -0.6816    -0.0404 C.ar    
   9 C9             3.4952     0.5604    -0.0290 C.ar    
  10 C10            3.8799    -3.1656    -0.0515 C.2     
  11 O11            3.1835    -4.1611    -0.0498 O.2     
  12 O12            5.2222    -3.2824    -0.0650 O.3     
  13 C13            1.4667     5.3514    -0.8646 C.ar    
  14 C14            1.0720     4.0283    -0.9015 C.ar    
  15 C15            1.6316     3.1296     0.0037 C.ar    
  16 C16            2.5725     3.6083     0.9141 C.ar    
  17 C17            2.9134     4.9445     0.8865 C.ar    
  18 N18            2.3612     5.7659     0.0134 N.ar    
  19 Br19           0.7224     6.5826    -2.0918 Br      
  20 C20            5.7666    -4.6284    -0.0769 C.3     
  21 H21           -0.9091     1.9027     0.0169 H       
  22 H22            1.2471    -2.5932    -0.0234 H       
  23 H23            5.1363    -0.7810    -0.0508 H       
  24 H24            4.1237     1.4387    -0.0303 H       
  25 H25            0.3395     3.6953    -1.6219 H       
  26 H26            3.0281     2.9419     1.6316 H       
  27 H27            3.6412     5.3236     1.5886 H       
  28 H28            6.8555    -4.5799    -0.0871 H       
  29 H29            5.4350    -5.1624     0.8136 H       
  30 H30            5.4180    -5.1535    -0.9662 H       
@<TRIPOS>BOND
   1    1    2 2
   2    1    5 1
   3    1   21 1
   4    2    3 1
   5    3    4 ar
   6    3    6 ar
   7    4    5 1
   8    4    9 ar
   9    5   15 1
  10    6    7 ar
  11    6   22 1
  12    7    8 ar
  13    7   10 1
  14    8    9 ar
  15    8   23 1
  16    9   24 1
  17   10   11 2
  18   10   12 1
  19   12   20 1
  20   13   14 ar
  21   13   18 ar
  22   13   19 1
  23   14   15 ar
  24   14   25 1
  25   15   16 ar
  26   16   17 ar
  27   16   26 1
  28   17   18 ar
  29   17   27 1
  30   20   28 1
  31   20   29 1
  32   20   30 1

#	End of record

