#	Name: ASD01880036
#	Creating user name:	WinNT
#	Creation time:	15. 06. 2019 19:39

#	Modifying user name:	WinNT
#	Modification time:	15. 06. 2019 19:39

#	Program:	/corina/corina34_cracker 3.40 0067  02.08.2006

@<TRIPOS>MOLECULE
ASD01880036
  51   52    0    0    0
SMALL
NO_CHARGES


@<TRIPOS>ATOM
   1 C1            -0.0167     1.3837     0.0096 C.ar    
   2 C2             0.0021    -0.0041     0.0020 C.ar    
   3 C3            -1.1902    -0.7236     0.0096 C.ar    
   4 C4            -2.3894    -0.0731     0.0250 C.ar    
   5 C5            -2.4283     1.3282     0.0333 C.ar    
   6 C6            -1.2262     2.0580     0.0306 C.ar    
   7 C7            -3.7147     2.0287     0.0499 C.2     
   8 C8            -5.0006     1.2429     0.0580 C.3     
   9 C9            -6.1879     2.2078     0.0750 C.3     
  10 C10           -6.2119     3.0099    -1.2276 C.3     
  11 C11           -7.4887     1.4135     0.2089 C.3     
  12 O12           -1.2513     3.4140     0.0391 O.3     
  13 O13            1.1881    -0.6630    -0.0133 O.3     
  14 C14            1.1368    -2.0911    -0.0205 C.3     
  15 C15            2.5599    -2.6525    -0.0376 C.3     
  16 C16            2.5050    -4.1815    -0.0453 C.3     
  17 C17            3.9282    -4.7429    -0.0625 C.3     
  18 O18            3.8768    -6.1709    -0.0696 O.3     
  19 C19            5.0652    -6.8312    -0.0850 C.ar    
  20 C20            5.0892    -8.2193    -0.0927 C.ar    
  21 C21            6.3020    -8.8887    -0.1083 C.ar    
  22 C22            7.4873    -8.1731    -0.1162 C.ar    
  23 C23            7.4627    -6.7908    -0.1081 C.ar    
  24 C24            6.2553    -6.1190    -0.0987 C.ar    
  25 Br25           1.6072     2.3526    -0.0007 Br      
  26 F26            6.3282   -10.2394    -0.1153 F       
  27 F27            3.9318    -8.9162    -0.0845 F       
  28 O28           -3.7450     3.2417     0.0571 O.2     
  29 H29           -1.1655    -1.8033     0.0028 H       
  30 H30           -3.3097    -0.6383     0.0304 H       
  31 H31           -5.0514     0.6201    -0.8351 H       
  32 H32           -5.0340     0.6099     0.9447 H       
  33 H33           -6.0899     2.8895     0.9198 H       
  34 H34           -7.0577     3.6973    -1.2154 H       
  35 H35           -5.2852     3.5758    -1.3230 H       
  36 H36           -6.3099     2.3282    -2.0724 H       
  37 H37           -7.4715     0.8420     1.1369 H       
  38 H38           -8.3345     2.1009     0.2211 H       
  39 H39           -7.5867     0.7317    -0.6359 H       
  40 H40           -1.2532     3.8018     0.9249 H       
  41 H41            0.6191    -2.4405     0.8728 H       
  42 H42            0.6014    -2.4310    -0.9070 H       
  43 H43            3.0776    -2.3031    -0.9310 H       
  44 H44            3.0953    -2.3126     0.8489 H       
  45 H45            1.9873    -4.5309     0.8480 H       
  46 H46            1.9696    -4.5214    -0.9318 H       
  47 H47            4.4458    -4.3934    -0.9558 H       
  48 H48            4.4635    -4.4030     0.8241 H       
  49 H49            8.4324    -8.6955    -0.1284 H       
  50 H50            8.3888    -6.2352    -0.1136 H       
  51 H51            6.2384    -5.0392    -0.0927 H       
@<TRIPOS>BOND
   1    1    2 ar
   2    1   25 1
   3    1    6 ar
   4    2    3 ar
   5    2   13 1
   6    3    4 ar
   7    3   29 1
   8    4    5 ar
   9    4   30 1
  10    5    6 ar
  11    5    7 1
  12    6   12 1
  13    7    8 1
  14    7   28 2
  15    8    9 1
  16    8   31 1
  17    8   32 1
  18    9   10 1
  19    9   11 1
  20    9   33 1
  21   10   34 1
  22   10   35 1
  23   10   36 1
  24   11   37 1
  25   11   38 1
  26   11   39 1
  27   12   40 1
  28   13   14 1
  29   14   15 1
  30   14   41 1
  31   14   42 1
  32   15   16 1
  33   15   43 1
  34   15   44 1
  35   16   17 1
  36   16   45 1
  37   16   46 1
  38   17   18 1
  39   17   47 1
  40   17   48 1
  41   18   19 1
  42   19   20 ar
  43   19   24 ar
  44   20   21 ar
  45   20   27 1
  46   21   22 ar
  47   21   26 1
  48   22   23 ar
  49   22   49 1
  50   23   24 ar
  51   23   50 1
  52   24   51 1

#	End of record

