#	Name: ASD01912406
#	Creating user name:	WinNT
#	Creation time:	15. 06. 2019 19:59

#	Modifying user name:	WinNT
#	Modification time:	15. 06. 2019 19:59

#	Program:	/corina/corina34_cracker 3.40 0067  02.08.2006

@<TRIPOS>MOLECULE
ASD01912406
  44   45    0    0    0
SMALL
NO_CHARGES


@<TRIPOS>ATOM
   1 N1            -0.0178     1.4633     0.0101 N.am    
   2 C2             0.0021    -0.0041     0.0020 C.3     
   3 C3             1.4473    -0.4539    -0.0033 C.2     
   4 C4             2.2419     0.7629     0.4402 C.3     
   5 C5             1.3678     1.9530    -0.0005 C.3     
   6 C6            -1.1235     2.2340     0.0197 C.2     
   7 O7            -1.0201     3.4446     0.0253 O.2     
   8 O8            -2.3425     1.6624     0.0231 O.3     
   9 C9             1.9202    -1.6568    -0.3263 C.2     
  10 C10            3.3287    -1.9100    -0.2745 C.1     
  11 C11            4.4834    -2.1175    -0.2321 C.1     
  12 C12            5.8919    -2.3706    -0.1803 C.ar    
  13 C13            6.3830    -3.6346    -0.5202 C.ar    
  14 C14            7.7457    -3.8623    -0.4649 C.ar    
  15 C15            8.5771    -2.8216    -0.0721 C.ar    
  16 C16            8.0252    -1.5954     0.2508 C.ar    
  17 N17            6.7243    -1.4000     0.1856 N.ar    
  18 C18            8.9256    -0.4647     0.6774 C.3     
  19 C19           -3.4885     2.5538     0.0336 C.3     
  20 C20           -3.4547     3.4426    -1.2113 C.3     
  21 C21           -4.7767     1.7284     0.0361 C.3     
  22 C22           -3.4417     3.4299     1.2871 C.3     
  23 H23           -0.4988    -0.3842     0.8924 H       
  24 H24           -0.5023    -0.3744    -0.8905 H       
  25 H25            2.3705     0.7624     1.5226 H       
  26 H26            3.2093     0.7920    -0.0612 H       
  27 H27            1.6458     2.2713    -1.0052 H       
  28 H28            1.4789     2.7804     0.7004 H       
  29 H29            1.2413    -2.4411    -0.6271 H       
  30 H30            5.7077    -4.4218    -0.8213 H       
  31 H31            8.1545    -4.8285    -0.7213 H       
  32 H32            9.6457    -2.9688    -0.0188 H       
  33 H33            9.2323     0.1060    -0.1991 H       
  34 H34            8.3885     0.1875     1.3660 H       
  35 H35            9.8073    -0.8700     1.1738 H       
  36 H36           -3.4880     2.8185    -2.1043 H       
  37 H37           -4.3150     4.1118    -1.2035 H       
  38 H38           -2.5369     4.0307    -1.2131 H       
  39 H39           -4.8008     1.0952     0.9230 H       
  40 H40           -5.6371     2.3976     0.0439 H       
  41 H41           -4.8101     1.1043    -0.8569 H       
  42 H42           -2.5240     4.0180     1.2853 H       
  43 H43           -4.3021     4.0991     1.2949 H       
  44 H44           -3.4658     2.7967     2.1740 H       
@<TRIPOS>BOND
   1    1    2 1
   2    1    5 1
   3    1    6 am
   4    2    3 1
   5    2   23 1
   6    2   24 1
   7    3    4 1
   8    3    9 2
   9    4    5 1
  10    4   25 1
  11    4   26 1
  12    5   27 1
  13    5   28 1
  14    6    7 2
  15    6    8 1
  16    8   19 1
  17    9   10 1
  18    9   29 1
  19   10   11 3
  20   11   12 1
  21   12   13 ar
  22   12   17 ar
  23   13   14 ar
  24   13   30 1
  25   14   15 ar
  26   14   31 1
  27   15   16 ar
  28   15   32 1
  29   16   17 ar
  30   16   18 1
  31   18   33 1
  32   18   34 1
  33   18   35 1
  34   19   20 1
  35   19   22 1
  36   19   21 1
  37   20   36 1
  38   20   37 1
  39   20   38 1
  40   21   39 1
  41   21   40 1
  42   21   41 1
  43   22   42 1
  44   22   43 1
  45   22   44 1

#	End of record

