#	Name: ASD01320014
#	Creating user name:	WinNT
#	Creation time:	15. 06. 2019 19:15

#	Modifying user name:	WinNT
#	Modification time:	15. 06. 2019 19:15

#	Program:	/corina/corina34_cracker 3.40 0067  02.08.2006

@<TRIPOS>MOLECULE
ASD01320014
  64   67    0    0    0
SMALL
NO_CHARGES


@<TRIPOS>ATOM
   1 C1             0.7021     2.0352    -0.1245 C.ar    
   2 C2             0.6188     0.6653    -0.2842 C.ar    
   3 C3            -0.6155     0.0360    -0.2521 C.ar    
   4 C4            -1.7742     0.7854    -0.0580 C.ar    
   5 C5            -1.6892     2.1601     0.1025 C.ar    
   6 C6            -0.4502     2.7849     0.0748 C.ar    
   7 O7            -0.6959    -1.3125    -0.4103 O.3     
   8 C8             0.4444    -1.9892    -0.6981 C.ar    
   9 C9             1.3847    -2.2161     0.2995 C.ar    
  10 C10            2.5533    -2.9091     0.0062 C.ar    
  11 C11            2.7758    -3.3775    -1.3040 C.ar    
  12 C12            1.8225    -3.1416    -2.2936 C.ar    
  13 C13            0.6643    -2.4574    -1.9883 C.ar    
  14 N14           -3.0221     0.1515    -0.0257 N.am    
  15 C15           -4.1368     0.8415    -0.3385 C.2     
  16 C16           -5.4644     0.2100    -0.1849 C.ar    
  17 O17           -4.0503     1.9833    -0.7468 O.2     
  18 C18           -6.6207     0.9218    -0.5079 C.ar    
  19 C19           -7.8568     0.3263    -0.3627 C.ar    
  20 C20           -7.9516    -0.9734     0.1018 C.ar    
  21 C21           -6.8091    -1.6845     0.4242 C.ar    
  22 C22           -5.5669    -1.1030     0.2783 C.ar    
  23 N23           -0.3625     4.1727     0.2372 N.am    
  24 C24           -1.3329     4.8367     0.8959 C.2     
  25 O25           -2.2308     4.2213     1.4372 O.2     
  26 C26           -1.3055     6.3132     0.9601 C.ar    
  27 C27           -0.2762     7.0228     0.3397 C.ar    
  28 C28           -0.2565     8.4009     0.4036 C.ar    
  29 C29           -1.2541     9.0794     1.0805 C.ar    
  30 C30           -2.2776     8.3819     1.6978 C.ar    
  31 C31           -2.3123     7.0044     1.6368 C.ar    
  32 C32            2.0459     2.7163    -0.1605 C.3     
  33 C33            3.5578    -3.1532     1.0635 C.2     
  34 O34            3.9283    -4.2855     1.2993 O.2     
  35 O35            4.0620    -2.1198     1.7650 O.3     
  36 C36            4.0130    -4.1141    -1.6275 C.2     
  37 O37            4.8863    -4.2316    -0.7911 O.2     
  38 O38            4.1740    -4.6565    -2.8504 O.3     
  39 N39           -3.3408     9.1161     2.4199 N.pl3   
  40 O40           -3.3142    10.3327     2.4704 O.2     
  41 O41           -4.2423     8.5036     2.9637 O.2     
  42 N42           -9.0842     1.0798    -0.7042 N.pl3   
  43 O43           -9.0023     2.2242    -1.1129 O.2     
  44 O44          -10.1761     0.5553    -0.5766 O.2     
  45 H45            1.5167     0.0843    -0.4346 H       
  46 H46           -2.5856     2.7434     0.2531 H       
  47 H47            1.2079    -1.8540     1.3015 H       
  48 H48            1.9890    -3.4988    -3.2991 H       
  49 H49           -0.0715    -2.2769    -2.7579 H       
  50 H50           -3.0844    -0.7843     0.2217 H       
  51 H51           -6.5481     1.9366    -0.8703 H       
  52 H52           -8.9216    -1.4349     0.2136 H       
  53 H53           -6.8901    -2.6985     0.7870 H       
  54 H54           -4.6760    -1.6592     0.5299 H       
  55 H55            0.3966     4.6564    -0.1244 H       
  56 H56            0.5034     6.4943    -0.1888 H       
  57 H57            0.5396     8.9512    -0.0758 H       
  58 H58           -1.2339    10.1581     1.1278 H       
  59 H59           -3.1118     6.4612     2.1186 H       
  60 H60            2.2798     3.0045    -1.1854 H       
  61 H61            2.0197     3.6052     0.4698 H       
  62 H62            2.8101     2.0320     0.2080 H       
  63 H63            4.7161    -2.3288     2.4459 H       
  64 H64            5.0011    -5.1296    -3.0154 H       
@<TRIPOS>BOND
   1    1    2 ar
   2    1   32 1
   3    1    6 ar
   4    2    3 ar
   5    2   45 1
   6    3    4 ar
   7    3    7 1
   8    4    5 ar
   9    4   14 1
  10    5    6 ar
  11    5   46 1
  12    6   23 1
  13    7    8 1
  14    8    9 ar
  15    8   13 ar
  16    9   10 ar
  17    9   47 1
  18   10   11 ar
  19   10   33 1
  20   11   12 ar
  21   11   36 1
  22   12   13 ar
  23   12   48 1
  24   13   49 1
  25   14   15 am
  26   14   50 1
  27   15   16 1
  28   15   17 2
  29   16   18 ar
  30   16   22 ar
  31   18   19 ar
  32   18   51 1
  33   19   20 ar
  34   19   42 1
  35   20   21 ar
  36   20   52 1
  37   21   22 ar
  38   21   53 1
  39   22   54 1
  40   23   24 am
  41   23   55 1
  42   24   25 2
  43   24   26 1
  44   26   27 ar
  45   26   31 ar
  46   27   28 ar
  47   27   56 1
  48   28   29 ar
  49   28   57 1
  50   29   30 ar
  51   29   58 1
  52   30   31 ar
  53   30   39 1
  54   31   59 1
  55   32   60 1
  56   32   61 1
  57   32   62 1
  58   33   34 2
  59   33   35 1
  60   35   63 1
  61   36   37 2
  62   36   38 1
  63   38   64 1
  64   39   40 2
  65   39   41 2
  66   42   43 2
  67   42   44 2

#	End of record

