#	Name: ASD01814480
#	Creating user name:	WinNT
#	Creation time:	15. 06. 2019 19:32

#	Modifying user name:	WinNT
#	Modification time:	15. 06. 2019 19:32

#	Program:	/corina/corina34_cracker 3.40 0067  02.08.2006

@<TRIPOS>MOLECULE
ASD01814480
  56   61    0    0    0
SMALL
NO_CHARGES


@<TRIPOS>ATOM
   1 C1            -0.0167     1.3807     0.0096 C.ar    
   2 C2             0.0021    -0.0041     0.0020 C.ar    
   3 N3             1.1326    -0.6807    -0.0120 N.ar    
   4 C4             2.3086    -0.0710    -0.0199 C.ar    
   5 C5             2.3610     1.3370    -0.0133 C.ar    
   6 C6             1.1830     2.0750     0.0019 C.ar    
   7 N7             3.4841    -0.7903    -0.0340 N.pl3   
   8 N8             4.6482    -0.2533    -0.0414 N.2     
   9 C9             4.8546     1.0371    -0.0368 C.2     
  10 C10            3.6943     1.9627    -0.0222 C.2     
  11 C11            3.3984    -2.2528    -0.0406 C.3     
  12 C12            3.3563    -2.7472    -1.4635 C.ar    
  13 C13            4.5323    -3.0469    -2.1359 C.ar    
  14 C14            4.4501    -3.4983    -3.4421 C.ar    
  15 C15            3.1962    -3.6352    -4.0332 C.ar    
  16 N16            2.0951    -3.3373    -3.3555 N.ar    
  17 C17            2.1448    -2.9118    -2.1097 C.ar    
  18 C18            3.0911    -4.1177    -5.4321 C.ar    
  19 C19            6.0309     1.9106    -0.0433 C.2     
  20 N20            5.5600     3.1761    -0.0334 N.am    
  21 N21            4.1629     3.1751    -0.0209 N.2     
  22 O22            7.2002     1.5643    -0.0550 O.2     
  23 C23            6.3588     4.3266    -0.0349 C.ar    
  24 C24            7.3129     4.5098    -1.0262 C.ar    
  25 C25            8.0995     5.6457    -1.0252 C.ar    
  26 C26            7.9380     6.6004    -0.0383 C.ar    
  27 C27            6.9887     6.4227     0.9517 C.ar    
  28 C28            6.1939     5.2913     0.9539 C.ar    
  29 F29            5.2663     5.1177     1.9206 F       
  30 C30            6.8161     7.4661     2.0254 C.3     
  31 C31            1.8418    -4.2613    -6.0417 C.ar    
  32 C32            1.7975    -4.7147    -7.3492 C.ar    
  33 C33            2.9796    -5.0081    -8.0038 C.ar    
  34 N34            4.1446    -4.8625    -7.4020 N.ar    
  35 C35            4.2369    -4.4294    -6.1615 C.ar    
  36 C36            2.9365    -5.5023    -9.4268 C.3     
  37 H37           -0.9559     1.9138     0.0170 H       
  38 H38           -0.9338    -0.5431     0.0080 H       
  39 H39            1.2020     3.1548     0.0075 H       
  40 H40            4.2702    -2.6701     0.4634 H       
  41 H41            2.4934    -2.5661     0.4799 H       
  42 H42            5.4904    -2.9304    -1.6513 H       
  43 H43            5.3455    -3.7405    -3.9952 H       
  44 H44            1.2275    -2.6789    -1.5894 H       
  45 H45            7.4406     3.7648    -1.7976 H       
  46 H46            8.8421     5.7879    -1.7963 H       
  47 H47            8.5548     7.4869    -0.0404 H       
  48 H48            6.0780     8.2005     1.7030 H       
  49 H49            6.4764     6.9888     2.9446 H       
  50 H50            7.7692     7.9636     2.2051 H       
  51 H51            0.9340    -4.0251    -5.5065 H       
  52 H52            0.8499    -4.8382    -7.8522 H       
  53 H53            5.2088    -4.3232    -5.7027 H       
  54 H54            2.9794    -4.6525   -10.1080 H       
  55 H55            3.7880    -6.1579    -9.6096 H       
  56 H56            2.0111    -6.0541    -9.5919 H       
@<TRIPOS>BOND
   1    1    2 ar
   2    1    6 ar
   3    1   37 1
   4    2    3 ar
   5    2   38 1
   6    3    4 ar
   7    4    5 ar
   8    4    7 1
   9    5    6 ar
  10    5   10 1
  11    6   39 1
  12    7    8 1
  13    7   11 1
  14    8    9 2
  15    9   10 1
  16    9   19 1
  17   10   21 2
  18   11   12 1
  19   11   40 1
  20   11   41 1
  21   12   13 ar
  22   12   17 ar
  23   13   14 ar
  24   13   42 1
  25   14   15 ar
  26   14   43 1
  27   15   16 ar
  28   15   18 1
  29   16   17 ar
  30   17   44 1
  31   18   31 ar
  32   18   35 ar
  33   19   20 am
  34   19   22 2
  35   20   21 1
  36   20   23 1
  37   23   24 ar
  38   23   28 ar
  39   24   25 ar
  40   24   45 1
  41   25   26 ar
  42   25   46 1
  43   26   27 ar
  44   26   47 1
  45   27   28 ar
  46   27   30 1
  47   28   29 1
  48   30   48 1
  49   30   49 1
  50   30   50 1
  51   31   32 ar
  52   31   51 1
  53   32   33 ar
  54   32   52 1
  55   33   34 ar
  56   33   36 1
  57   34   35 ar
  58   35   53 1
  59   36   54 1
  60   36   55 1
  61   36   56 1

#	End of record

