#	Name: ASD07932013
#	Creating user name:	WinNT
#	Creation time:	15. 06. 2019 21:14

#	Modifying user name:	WinNT
#	Modification time:	15. 06. 2019 21:14

#	Program:	/corina/corina34_cracker 3.40 0067  02.08.2006

@<TRIPOS>MOLECULE
ASD07932013
  25   26    0    0    0
SMALL
NO_CHARGES


@<TRIPOS>ATOM
   1 C1            -0.0123     1.4262     0.2520 C.ar    
   2 C2             0.0149     0.1071     0.6971 C.ar    
   3 C3            -1.1877    -0.5316     0.9391 C.ar    
   4 C4            -2.3796     0.1629     0.7304 C.ar    
   5 N5            -2.3652     1.4211     0.3045 N.ar    
   6 C6            -1.2403     2.0579     0.0715 C.ar    
   7 C7            -3.6716    -0.5083     0.9854 C.2     
   8 O8            -3.6919    -1.6587     1.3745 O.2     
   9 O9            -4.8266     0.1559     0.7861 O.3     
  10 O10            1.1445     2.0903     0.0024 O.3     
  11 C11            2.3569     1.3400     0.0977 C.3     
  12 C12            3.5178     1.9397    -0.7131 C.3     
  13 C13            4.4300     1.5712     0.4688 C.3     
  14 C14            3.1787     1.6551     1.3588 C.3     
  15 H15            0.9533    -0.4054     0.8495 H       
  16 H16           -1.2040    -1.5546     1.2848 H       
  17 H17           -1.2681     3.0809    -0.2738 H       
  18 H18           -5.6461    -0.3247     0.9663 H       
  19 H19            2.2094     0.2738    -0.0739 H       
  20 H20            3.7427     1.3890    -1.6265 H       
  21 H21            3.4274     3.0136    -0.8766 H       
  22 H22            4.8502     0.5678     0.3997 H       
  23 H23            5.1788     2.3300     0.6956 H       
  24 H24            2.9955     2.6511     1.7618 H       
  25 H25            3.1298     0.8746     2.1181 H       
@<TRIPOS>BOND
   1    1    2 ar
   2    1   10 1
   3    1    6 ar
   4    2    3 ar
   5    2   15 1
   6    3    4 ar
   7    3   16 1
   8    4    5 ar
   9    4    7 1
  10    5    6 ar
  11    6   17 1
  12    7    8 2
  13    7    9 1
  14    9   18 1
  15   10   11 1
  16   11   12 1
  17   11   14 1
  18   11   19 1
  19   12   13 1
  20   12   20 1
  21   12   21 1
  22   13   14 1
  23   13   22 1
  24   13   23 1
  25   14   24 1
  26   14   25 1

#	End of record

