#	Name: ASD01917395
#	Creating user name:	WinNT
#	Creation time:	15. 06. 2019 20:09

#	Modifying user name:	WinNT
#	Modification time:	15. 06. 2019 20:09

#	Program:	/corina/corina34_cracker 3.40 0067  02.08.2006

@<TRIPOS>MOLECULE
ASD01917395
  41   43    0    0    0
SMALL
NO_CHARGES


@<TRIPOS>ATOM
   1 C1            -0.0180     1.4742     0.0101 C.2     
   2 C2             0.0021    -0.0041     0.0020 C.ar    
   3 C3             1.2186    -0.6886    -0.0133 C.ar    
   4 C4             1.2303    -2.0679    -0.0203 C.ar    
   5 C5             0.0396    -2.7730    -0.0127 C.ar    
   6 C6            -1.1694    -2.1008     0.0024 C.ar    
   7 C7            -1.1950    -0.7213     0.0154 C.ar    
   8 O8             1.0263     2.0963     0.0035 O.2     
   9 N9            -1.1942     2.1322     0.0193 N.am    
  10 C10            2.5426    -2.8085    -0.0368 C.3     
  11 C11           -1.2141     3.5970     0.0274 C.3     
  12 C12           -0.4908     4.1901     1.2492 C.3     
  13 C13           -0.3553     5.7025     1.0628 C.3     
  14 C14           -1.7287     6.3350     0.8299 C.3     
  15 C15           -2.3987     5.6497    -0.3739 C.3     
  16 C16           -1.3372     5.5375    -1.4925 C.3     
  17 C17           -0.5655     4.2082    -1.2361 C.3     
  18 C18           -2.6537     4.1757     0.0378 C.3     
  19 N19           -3.6136     6.3479    -0.8150 N.3     
  20 H20            2.1485    -0.1394    -0.0199 H       
  21 H21            0.0543    -3.8529    -0.0190 H       
  22 H22           -2.0951    -2.6570     0.0083 H       
  23 H23           -2.1395    -0.1977     0.0314 H       
  24 H24           -2.0276     1.6358     0.0206 H       
  25 H25            2.8690    -2.9923     0.9868 H       
  26 H26            2.4166    -3.7596    -0.5542 H       
  27 H27            3.2914    -2.2095    -0.5550 H       
  28 H28           -1.0682     3.9839     2.1504 H       
  29 H29            0.4995     3.7435     1.3389 H       
  30 H30            0.0952     6.1370     1.9552 H       
  31 H31            0.2850     5.9042     0.2041 H       
  32 H32           -2.3474     6.2003     1.7171 H       
  33 H33           -1.6101     7.3989     0.6244 H       
  34 H34           -1.8228     5.5054    -2.4679 H       
  35 H35           -0.6502     6.3823    -1.4431 H       
  36 H36            0.4889     4.4151    -1.0533 H       
  37 H37           -0.6732     3.5263    -2.0797 H       
  38 H38           -3.2872     3.6604    -0.6842 H       
  39 H39           -3.0860     4.1301     1.0374 H       
  40 H40           -3.4077     7.2992    -1.0806 H       
  41 H41           -4.0625     5.8508    -1.5697 H       
@<TRIPOS>BOND
   1    1    2 1
   2    1    8 2
   3    1    9 am
   4    2    3 ar
   5    2    7 ar
   6    3    4 ar
   7    3   20 1
   8    4    5 ar
   9    4   10 1
  10    5    6 ar
  11    5   21 1
  12    6    7 ar
  13    6   22 1
  14    7   23 1
  15    9   11 1
  16    9   24 1
  17   10   25 1
  18   10   26 1
  19   10   27 1
  20   11   12 1
  21   11   17 1
  22   11   18 1
  23   12   13 1
  24   12   28 1
  25   12   29 1
  26   13   14 1
  27   13   30 1
  28   13   31 1
  29   14   15 1
  30   14   32 1
  31   14   33 1
  32   15   16 1
  33   15   18 1
  34   15   19 1
  35   16   17 1
  36   16   34 1
  37   16   35 1
  38   17   36 1
  39   17   37 1
  40   18   38 1
  41   18   39 1
  42   19   40 1
  43   19   41 1

#	End of record

