#	Name: ASD01940585
#	Creating user name:	WinNT
#	Creation time:	15. 06. 2019 20:12

#	Modifying user name:	WinNT
#	Modification time:	15. 06. 2019 20:12

#	Program:	/corina/corina34_cracker 3.40 0067  02.08.2006

@<TRIPOS>MOLECULE
ASD01940585
  61   64    0    0    0
SMALL
NO_CHARGES


@<TRIPOS>ATOM
   1 C1             0.3802     2.1851    -1.1187 C.ar    
   2 C2            -0.6332     2.0705    -2.0606 C.ar    
   3 C3            -0.6804     2.9469    -3.1377 C.ar    
   4 C4             0.2803     3.9308    -3.2713 C.ar    
   5 C5             1.2896     4.0465    -2.3350 C.ar    
   6 C6             1.3418     3.1739    -1.2563 C.ar    
   7 N7            -1.6037     1.0752    -1.9259 N.am    
   8 S8            -1.5372    -0.2801    -2.8751 S.o2    
   9 C9             0.0063    -1.0989    -2.3876 C.3     
  10 O10           -2.6602    -1.0493    -2.4670 O.2     
  11 O11           -1.4371     0.2244    -4.1998 O.2     
  12 O12            2.3348     3.2892    -0.3360 O.3     
  13 C13            3.3137     4.2051    -0.5644 C.ar    
  14 C14            4.4854     3.8246    -1.2022 C.ar    
  15 C15            5.4829     4.7554    -1.4355 C.ar    
  16 C16            5.3159     6.0698    -1.0343 C.ar    
  17 C17            4.1464     6.4587    -0.3960 C.ar    
  18 C18            3.1388     5.5251    -0.1641 C.ar    
  19 N19            3.9776     7.7880     0.0097 N.pl3   
  20 C20            4.8674     8.7724    -0.4323 C.ar    
  21 C21            5.4239     8.6880    -1.7017 C.ar    
  22 C22            6.3024     9.6617    -2.1358 C.ar    
  23 C23            6.6291    10.7205    -1.3077 C.ar    
  24 C24            6.0777    10.8088    -0.0420 C.ar    
  25 C25            5.1924     9.8412     0.3964 C.ar    
  26 F26            4.6491     9.9305     1.6301 F       
  27 I27            7.9627    12.1936    -1.9716 I       
  28 N28            1.9518     5.9150     0.4769 N.am    
  29 S29            1.5272     5.2279     1.9226 S.o2    
  30 C30            0.2421    -2.3173    -3.2824 C.3     
  31 F31            6.6227     4.3802    -2.0562 F       
  32 O32            0.3117     5.8744     2.2744 O.2     
  33 O33            1.5673     3.8298     1.6713 O.2     
  34 C34            2.8562     5.7085     3.0598 C.3     
  35 C35            2.6635     5.1801     4.4910 C.3     
  36 C36            4.1763     4.9042     4.5088 C.3     
  37 C37            4.0961     4.8026     2.9764 C.3     
  38 H38            0.4168     1.5080    -0.2781 H       
  39 H39           -1.4683     2.8587    -3.8710 H       
  40 H40            0.2424     4.6107    -4.1096 H       
  41 H41            2.0393     4.8165    -2.4425 H       
  42 H42           -2.3168     1.1778    -1.2763 H       
  43 H43            0.8374    -0.4020    -2.4963 H       
  44 H44           -0.0652    -1.4198    -1.3483 H       
  45 H45            4.6198     2.8002    -1.5168 H       
  46 H46            6.0966     6.7931    -1.2178 H       
  47 H47            3.2436     8.0263     0.5974 H       
  48 H48            5.1703     7.8616    -2.3491 H       
  49 H49            6.7352     9.5959    -3.1231 H       
  50 H50            6.3353    11.6363     0.6024 H       
  51 H51            1.3805     6.5868     0.0729 H       
  52 H52            1.1695    -2.8093    -2.9895 H       
  53 H53           -0.5890    -3.0142    -3.1737 H       
  54 H54            0.3136    -1.9964    -4.3217 H       
  55 H55            3.0876     6.7728     3.0148 H       
  56 H56            2.3510     5.9459     5.2009 H       
  57 H57            2.0545     4.2777     4.5450 H       
  58 H58            4.7699     5.7482     4.8599 H       
  59 H59            4.4433     3.9660     4.9952 H       
  60 H60            3.8787     3.7971     2.6162 H       
  61 H61            4.9401     5.2638     2.4635 H       
@<TRIPOS>BOND
   1    1    2 ar
   2    1    6 ar
   3    1   38 1
   4    2    3 ar
   5    2    7 1
   6    3    4 ar
   7    3   39 1
   8    4    5 ar
   9    4   40 1
  10    5    6 ar
  11    5   41 1
  12    6   12 1
  13    7    8 am
  14    7   42 1
  15    8    9 1
  16    8   10 2
  17    8   11 2
  18    9   30 1
  19    9   43 1
  20    9   44 1
  21   12   13 1
  22   13   14 ar
  23   13   18 ar
  24   14   15 ar
  25   14   45 1
  26   15   16 ar
  27   15   31 1
  28   16   17 ar
  29   16   46 1
  30   17   18 ar
  31   17   19 1
  32   18   28 1
  33   19   20 1
  34   19   47 1
  35   20   21 ar
  36   20   25 ar
  37   21   22 ar
  38   21   48 1
  39   22   23 ar
  40   22   49 1
  41   23   24 ar
  42   23   27 1
  43   24   25 ar
  44   24   50 1
  45   25   26 1
  46   28   29 am
  47   28   51 1
  48   29   32 2
  49   29   33 2
  50   29   34 1
  51   30   52 1
  52   30   53 1
  53   30   54 1
  54   34   35 1
  55   34   37 1
  56   34   55 1
  57   35   36 1
  58   35   56 1
  59   35   57 1
  60   36   37 1
  61   36   58 1
  62   36   59 1
  63   37   60 1
  64   37   61 1

#	End of record

