#	Name: ASD07301592
#	Creating user name:	WinNT
#	Creation time:	15. 06. 2019 21:11

#	Modifying user name:	WinNT
#	Modification time:	15. 06. 2019 21:11

#	Program:	/corina/corina34_cracker 3.40 0067  02.08.2006

@<TRIPOS>MOLECULE
ASD07301592
  55   59    0    0    0
SMALL
NO_CHARGES


@<TRIPOS>ATOM
   1 C1            -0.8593     0.9898    -0.1290 C.ar    
   2 C2            -1.0224    -0.3809    -0.3520 C.ar    
   3 C3             0.0629    -1.2295    -0.1925 C.ar    
   4 C4             1.2779    -0.6768     0.1857 C.ar    
   5 C5             1.3673     0.6874     0.3894 C.ar    
   6 N6             0.3188     1.4718     0.2306 N.ar    
   7 C7            -2.9733     0.6168    -0.6996 C.2     
   8 N8            -2.0978     1.5795    -0.3555 N.am    
   9 N9            -2.3523    -0.5781    -0.7118 N.am    
  10 O10           -4.1470     0.7991    -0.9639 O.2     
  11 C11           -2.3866     2.9476    -0.2434 C.ar    
  12 C12           -3.6708     3.4094    -0.4983 C.ar    
  13 C13           -3.9547     4.7561    -0.3874 C.ar    
  14 C14           -2.9568     5.6478    -0.0213 C.ar    
  15 C15           -1.6733     5.1868     0.2336 C.ar    
  16 C16           -1.3897     3.8396     0.1281 C.ar    
  17 O17           -3.2368     6.9738     0.0874 O.3     
  18 C18           -3.9132     7.3925     1.1815 C.2     
  19 N19           -4.2407     6.6360     2.1967 N.2     
  20 C20           -4.9115     7.3750     3.1189 C.ar    
  21 C21           -4.9944     8.6846     2.6168 C.ar    
  22 N22           -4.3497     8.6678     1.3918 N.pl3   
  23 C23           -5.4764     7.0780     4.3613 C.ar    
  24 C24           -6.1073     8.0687     5.0801 C.ar    
  25 C25           -6.1868     9.3596     4.5797 C.ar    
  26 C26           -5.6339     9.6694     3.3541 C.ar    
  27 C27           -4.1722     9.8069     0.4879 C.3     
  28 C28           -2.9719    -1.8647    -1.0387 C.3     
  29 C29           -3.5356    -2.4975     0.2352 C.3     
  30 C30           -4.0711    -3.8949    -0.0834 C.3     
  31 C31           -2.4280    -2.6031     1.2854 C.3     
  32 O32           -4.5964    -1.6849     0.7416 O.3     
  33 H33           -0.0353    -2.2922    -0.3580 H       
  34 H34            2.1452    -1.3063     0.3200 H       
  35 H35            2.3126     1.1187     0.6838 H       
  36 H36           -4.4476     2.7154    -0.7837 H       
  37 H37           -4.9536     5.1154    -0.5860 H       
  38 H38           -0.8968     5.8813     0.5186 H       
  39 H39           -0.3915     3.4803     0.3305 H       
  40 H40           -5.4188     6.0746     4.7568 H       
  41 H41           -6.5439     7.8385     6.0408 H       
  42 H42           -6.6850    10.1274     5.1529 H       
  43 H43           -5.6987    10.6768     2.9702 H       
  44 H44           -5.0175     9.8616    -0.1980 H       
  45 H45           -4.1162    10.7270     1.0696 H       
  46 H46           -3.2508     9.6797    -0.0804 H       
  47 H47           -3.7789    -1.7080    -1.7543 H       
  48 H48           -2.2242    -2.5280    -1.4737 H       
  49 H49           -3.2620    -4.5148    -0.4697 H       
  50 H50           -4.4727    -4.3457     0.8241 H       
  51 H51           -4.8602    -3.8197    -0.8316 H       
  52 H52           -2.0465    -1.6076     1.5124 H       
  53 H53           -2.8296    -3.0539     2.1930 H       
  54 H54           -1.6189    -3.2229     0.8992 H       
  55 H55           -5.3348    -1.5742     0.1271 H       
@<TRIPOS>BOND
   1    1    2 ar
   2    1    6 ar
   3    1    8 1
   4    2    3 ar
   5    2    9 1
   6    3    4 ar
   7    3   33 1
   8    4    5 ar
   9    4   34 1
  10    5    6 ar
  11    5   35 1
  12    7    8 am
  13    7    9 am
  14    7   10 2
  15    8   11 1
  16    9   28 1
  17   11   12 ar
  18   11   16 ar
  19   12   13 ar
  20   12   36 1
  21   13   14 ar
  22   13   37 1
  23   14   15 ar
  24   14   17 1
  25   15   16 ar
  26   15   38 1
  27   16   39 1
  28   17   18 1
  29   18   19 2
  30   18   22 1
  31   19   20 1
  32   20   21 ar
  33   20   23 ar
  34   21   22 1
  35   21   26 ar
  36   22   27 1
  37   23   24 ar
  38   23   40 1
  39   24   25 ar
  40   24   41 1
  41   25   26 ar
  42   25   42 1
  43   26   43 1
  44   27   44 1
  45   27   45 1
  46   27   46 1
  47   28   29 1
  48   28   47 1
  49   28   48 1
  50   29   30 1
  51   29   31 1
  52   29   32 1
  53   30   49 1
  54   30   50 1
  55   30   51 1
  56   31   52 1
  57   31   53 1
  58   31   54 1
  59   32   55 1

#	End of record

