#	Name: ASD09740304
#	Creating user name:	WinNT
#	Creation time:	15. 06. 2019 21:23

#	Modifying user name:	WinNT
#	Modification time:	15. 06. 2019 21:23

#	Program:	/corina/corina34_cracker 3.40 0067  02.08.2006

@<TRIPOS>MOLECULE
ASD09740304
  32   35    0    0    0
SMALL
NO_CHARGES


@<TRIPOS>ATOM
   1 N1            -0.0144     1.2085     0.0087 N.2     
   2 O2             0.0021    -0.0041     0.0020 O.3     
   3 C3             1.2057     1.6798    -0.0004 C.2     
   4 N4             2.0455     0.6238    -0.0141 N.2     
   5 C5             1.2699    -0.4439    -0.0124 C.2     
   6 C6             1.7128    -1.8545    -0.0243 C.ar    
   7 C7             1.5950     3.1130     0.0035 C.ar    
   8 C8             0.6264     4.1194     0.0187 C.ar    
   9 C9             1.0316     5.4391     0.0219 C.ar    
  10 N10            2.3123     5.7538     0.0108 N.ar    
  11 C11            3.2578     4.8344    -0.0037 C.ar    
  12 C12            2.9398     3.4911    -0.0020 C.ar    
  13 C13            0.7718    -2.8822    -0.0208 C.ar    
  14 C14            1.1968    -4.2068    -0.0319 C.ar    
  15 C15            2.5599    -4.4992    -0.0465 C.ar    
  16 C16            3.4892    -3.4769    -0.0498 C.ar    
  17 C17            3.0753    -2.1602    -0.0447 C.ar    
  18 C18            0.2008    -5.3070    -0.0278 C.2     
  19 C19            0.4713    -6.6349    -0.0374 C.2     
  20 O20           -0.7125    -7.2770    -0.0291 O.3     
  21 C21           -1.6833    -6.3538    -0.0147 C.2     
  22 N22           -1.1440    -5.1697    -0.0079 N.2     
  23 H23           -0.4241     3.8688     0.0275 H       
  24 H24            0.2901     6.2241     0.0332 H       
  25 H25            4.2947     5.1365    -0.0124 H       
  26 H26            3.7191     2.7435    -0.0138 H       
  27 H27           -0.2832    -2.6514    -0.0092 H       
  28 H28            2.8902    -5.5274    -0.0547 H       
  29 H29            4.5439    -3.7090    -0.0611 H       
  30 H30            3.8063    -1.3652    -0.0474 H       
  31 H31            1.4500    -7.0914    -0.0495 H       
  32 H32           -2.7435    -6.5595    -0.0056 H       
@<TRIPOS>BOND
   1    1    2 1
   2    1    3 2
   3    2    5 1
   4    3    4 1
   5    3    7 1
   6    4    5 2
   7    5    6 1
   8    6   13 ar
   9    6   17 ar
  10    7    8 ar
  11    7   12 ar
  12    8    9 ar
  13    8   23 1
  14    9   10 ar
  15    9   24 1
  16   10   11 ar
  17   11   12 ar
  18   11   25 1
  19   12   26 1
  20   13   14 ar
  21   13   27 1
  22   14   15 ar
  23   14   18 1
  24   15   16 ar
  25   15   28 1
  26   16   17 ar
  27   16   29 1
  28   17   30 1
  29   18   19 2
  30   18   22 1
  31   19   20 1
  32   19   31 1
  33   20   21 1
  34   21   22 2
  35   21   32 1

#	End of record

