#	Name: ASD01917849
#	Creating user name:	WinNT
#	Creation time:	15. 06. 2019 20:10

#	Modifying user name:	WinNT
#	Modification time:	15. 06. 2019 20:10

#	Program:	/corina/corina34_cracker 3.40 0067  02.08.2006

@<TRIPOS>MOLECULE
ASD01917849
  42   45    0    0    0
SMALL
NO_CHARGES


@<TRIPOS>ATOM
   1 C1             0.0045     1.2663    -0.0856 C.2     
   2 C2            -0.0165    -0.0795    -0.0613 C.2     
   3 C3            -1.3044    -0.8864    -0.0021 C.3     
   4 C4            -2.4377     0.0139     0.4955 C.3     
   5 N5            -2.3969     1.2885    -0.2370 N.am    
   6 C6            -1.2190     2.1529    -0.0464 C.3     
   7 C7            -3.4039     1.6536    -1.0549 C.2     
   8 O8            -4.3057     0.8745    -1.2939 O.2     
   9 S9             1.6771     1.8022    -0.1622 S.3     
  10 C10            2.2059     0.1768    -0.1503 C.2     
  11 N11            1.1952    -0.6173    -0.0958 N.2     
  12 C12            3.6467    -0.2622    -0.1973 C.3     
  13 O13            4.0502    -0.4272    -1.5582 O.3     
  14 C14            5.3315    -0.8232    -1.7782 C.ar    
  15 C15            5.7899    -1.0030    -3.0751 C.ar    
  16 C16            7.0928    -1.4056    -3.2976 C.ar    
  17 C17            7.9406    -1.6298    -2.2294 C.ar    
  18 C18            7.4862    -1.4518    -0.9330 C.ar    
  19 C19            6.1842    -1.0427    -0.7064 C.ar    
  20 C20           -3.4117     3.0022    -1.6618 C.ar    
  21 N21           -2.4951     3.8925    -1.2996 N.ar    
  22 C22           -2.4657     5.1012    -1.8140 C.ar    
  23 C23           -3.4003     5.4964    -2.7634 C.ar    
  24 C24           -4.3764     4.5985    -3.1715 C.ar    
  25 C25           -4.3793     3.3270    -2.6151 C.ar    
  26 F26           -5.3109     2.4201    -2.9827 F       
  27 F27           -3.3593     6.7425    -3.2836 F       
  28 F28            8.3162    -1.6723     0.1099 F       
  29 H29           -1.5462    -1.2603    -0.9970 H       
  30 H30           -1.1778    -1.7250     0.6826 H       
  31 H31           -3.3956    -0.4761     0.3213 H       
  32 H32           -2.3120     0.2021     1.5618 H       
  33 H33           -1.2819     2.6573     0.9179 H       
  34 H34           -1.1668     2.8897    -0.8479 H       
  35 H35            4.2725     0.4931     0.2781 H       
  36 H36            3.7554    -1.2093     0.3313 H       
  37 H37            5.1284    -0.8285    -3.9108 H       
  38 H38            7.4491    -1.5457    -4.3075 H       
  39 H39            8.9586    -1.9445    -2.4056 H       
  40 H40            5.8294    -0.9034     0.3041 H       
  41 H41           -1.7047     5.7976    -1.4942 H       
  42 H42           -5.1144     4.8813    -3.9076 H       
@<TRIPOS>BOND
   1    1    2 2
   2    1    9 1
   3    1    6 1
   4    2    3 1
   5    2   11 1
   6    3    4 1
   7    3   29 1
   8    3   30 1
   9    4    5 1
  10    4   31 1
  11    4   32 1
  12    5    6 1
  13    5    7 am
  14    6   33 1
  15    6   34 1
  16    7    8 2
  17    7   20 1
  18    9   10 1
  19   10   11 2
  20   10   12 1
  21   12   13 1
  22   12   35 1
  23   12   36 1
  24   13   14 1
  25   14   15 ar
  26   14   19 ar
  27   15   16 ar
  28   15   37 1
  29   16   17 ar
  30   16   38 1
  31   17   18 ar
  32   17   39 1
  33   18   19 ar
  34   18   28 1
  35   19   40 1
  36   20   21 ar
  37   20   25 ar
  38   21   22 ar
  39   22   23 ar
  40   22   41 1
  41   23   24 ar
  42   23   27 1
  43   24   25 ar
  44   24   42 1
  45   25   26 1

#	End of record

