#	Name: ASD03331794
#	Creating user name:	WinNT
#	Creation time:	15. 06. 2019 20:39

#	Modifying user name:	WinNT
#	Modification time:	15. 06. 2019 20:39

#	Program:	/corina/corina34_cracker 3.40 0067  02.08.2006

@<TRIPOS>MOLECULE
ASD03331794
  56   58    0    0    0
SMALL
NO_CHARGES


@<TRIPOS>ATOM
   1 C1            -0.0187     1.5258     0.0104 C.3     
   2 C2             0.0021    -0.0041     0.0020 C.3     
   3 C3            -1.4333    -0.5336     0.0129 C.3     
   4 C4            -1.4126    -2.0635     0.0045 C.3     
   5 C5            -2.8479    -2.5931     0.0153 C.3     
   6 C6            -2.8272    -4.1229     0.0069 C.3     
   7 C7            -4.2410    -4.6445     0.0176 C.2     
   8 C8            -4.9842    -4.9221     1.1206 C.2     
   9 N9            -6.2269    -5.3788     0.7265 N.pl3   
  10 H10           -6.9455    -5.6451     1.3212 H       
  11 C11           -6.2781    -5.3931    -0.6478 C.ar    
  12 C12           -7.2654    -5.7534    -1.5603 C.ar    
  13 C13           -7.0174    -5.6571    -2.9113 C.ar    
  14 C14           -5.7885    -5.2027    -3.3753 C.ar    
  15 Cl15          -5.5018    -5.0908    -5.0838 Cl      
  16 C16           -4.8047    -4.8430    -2.4990 C.ar    
  17 C17           -5.0352    -4.9274    -1.1200 C.ar    
  18 C18           -4.5367    -4.7624     2.5123 C.2     
  19 O19           -3.4165    -4.3507     2.7476 O.2     
  20 N20           -5.3678    -5.0720     3.5271 N.am    
  21 C21           -4.9221    -4.9128     4.9136 C.3     
  22 C22           -6.0474    -5.3306     5.8623 C.3     
  23 C23           -5.5889    -5.1669     7.2884 C.ar    
  24 C24           -4.9575    -6.2233     7.9329 C.ar    
  25 C25           -4.5372    -6.0910     9.2234 C.ar    
  26 C26           -4.7473    -4.8664     9.9073 C.ar    
  27 C27           -5.3929    -3.7973     9.2352 C.ar    
  28 C28           -5.7969    -3.9592     7.9429 C.ar    
  29 N29           -4.3449    -4.7227    11.1615 N.2     
  30 N30           -4.5143    -3.7497    11.6982 N.1     
  31 N31           -4.6838    -2.7768    12.2348 N.pl3   
  32 H32            1.0039     1.9031     0.0027 H       
  33 H33           -0.5459     1.8868    -0.8726 H       
  34 H34           -0.5289     1.8773     0.9072 H       
  35 H35            0.5123    -0.3556    -0.8948 H       
  36 H36            0.5293    -0.3651     0.8851 H       
  37 H37           -1.9435    -0.1821     0.9097 H       
  38 H38           -1.9605    -0.1726    -0.8702 H       
  39 H39           -0.9024    -2.4150    -0.8923 H       
  40 H40           -0.8854    -2.4246     0.8875 H       
  41 H41           -3.3581    -2.2415     0.9121 H       
  42 H42           -3.3751    -2.2320    -0.8677 H       
  43 H43           -2.3170    -4.4744    -0.8899 H       
  44 H44           -2.3000    -4.4840     0.8900 H       
  45 H45           -8.2234    -6.1080    -1.2096 H       
  46 H46           -7.7850    -5.9377    -3.6173 H       
  47 H47           -3.8529    -4.4906    -2.8683 H       
  48 H48           -6.2611    -5.4003     3.3396 H       
  49 H49           -4.0478    -5.5400     5.0884 H       
  50 H50           -4.6629    -3.8697     5.0944 H       
  51 H51           -6.9216    -4.7035     5.6874 H       
  52 H52           -6.3065    -6.3738     5.6814 H       
  53 H53           -4.7990    -7.1545     7.4092 H       
  54 H54           -4.0473    -6.9142     9.7220 H       
  55 H55           -5.5600    -2.8588     9.7428 H       
  56 H56           -6.2853    -3.1458     7.4269 H       
@<TRIPOS>BOND
   1    1    2 1
   2    1   32 1
   3    1   33 1
   4    1   34 1
   5    2    3 1
   6    2   35 1
   7    2   36 1
   8    3    4 1
   9    3   37 1
  10    3   38 1
  11    4    5 1
  12    4   39 1
  13    4   40 1
  14    5    6 1
  15    5   41 1
  16    5   42 1
  17    6    7 1
  18    6   43 1
  19    6   44 1
  20    7   17 1
  21    7    8 2
  22    8    9 1
  23    8   18 1
  24    9   10 1
  25    9   11 1
  26   11   17 ar
  27   11   12 ar
  28   12   13 ar
  29   12   45 1
  30   13   14 ar
  31   13   46 1
  32   14   15 1
  33   14   16 ar
  34   16   17 ar
  35   16   47 1
  36   18   19 2
  37   18   20 am
  38   20   21 1
  39   20   48 1
  40   21   22 1
  41   21   49 1
  42   21   50 1
  43   22   23 1
  44   22   51 1
  45   22   52 1
  46   23   28 ar
  47   23   24 ar
  48   24   25 ar
  49   24   53 1
  50   25   26 ar
  51   25   54 1
  52   26   27 ar
  53   26   29 1
  54   27   28 ar
  55   27   55 1
  56   28   56 1
  57   29   30 2
  58   30   31 2

#	End of record

