#	Name: ASD01209076
#	Creating user name:	WinNT
#	Creation time:	15. 06. 2019 19:10

#	Modifying user name:	WinNT
#	Modification time:	15. 06. 2019 19:10

#	Program:	/corina/corina34_cracker 3.40 0067  02.08.2006

@<TRIPOS>MOLECULE
ASD01209076
  49   51    0    0    0
SMALL
NO_CHARGES


@<TRIPOS>ATOM
   1 C1            -0.0334     1.3217    -0.1652 C.ar    
   2 C2            -0.1419    -0.0607    -0.1135 C.ar    
   3 C3            -1.3855    -0.6593     0.0348 C.ar    
   4 C4            -2.5250     0.1211     0.1319 C.ar    
   5 C5            -2.4213     1.5144     0.0808 C.ar    
   6 C6            -1.1659     2.1119    -0.0629 C.ar    
   7 O7             1.1873     1.9013    -0.3110 O.3     
   8 C8             1.8417     1.7197    -1.4832 C.ar    
   9 C9            -3.6293     2.3492     0.1830 C.2     
  10 O10           -4.7168     1.8287     0.3117 O.2     
  11 C11           -3.5144     3.8508     0.1276 C.3     
  12 C12           -3.6255     4.3175    -1.3253 C.3     
  13 C13           -4.6394     4.4791     0.9525 C.3     
  14 O14           -1.4848    -2.0137     0.0843 O.3     
  15 C15           -2.0955    -2.6469    -0.9514 C.ar    
  16 C16           -2.3378    -4.0115    -0.8860 C.ar    
  17 C17           -2.9592    -4.6527    -1.9400 C.ar    
  18 C18           -3.3391    -3.9359    -3.0597 C.ar    
  19 C19           -3.0984    -2.5760    -3.1276 C.ar    
  20 C20           -2.4829    -1.9289    -2.0737 C.ar    
  21 S21           -4.1310    -4.7569    -4.4027 S.o2    
  22 O22           -3.8210    -3.9561    -5.5348 O.2     
  23 O23           -3.6769    -6.1002    -4.3090 O.2     
  24 N24            2.9867     2.3508    -1.6877 N.ar    
  25 C25            3.6515     2.1959    -2.8209 C.ar    
  26 C26            3.1345     1.3608    -3.7989 C.ar    
  27 C27            1.9331     0.7158    -3.5509 C.ar    
  28 N28            1.3230     0.9113    -2.3935 N.ar    
  29 C29           -5.9003    -4.6547    -4.0158 C.3     
  30 H30            0.7444    -0.6731    -0.1892 H       
  31 H31           -3.4922    -0.3456     0.2465 H       
  32 H32           -1.0802     3.1878    -0.1029 H       
  33 H33           -2.5507     4.1567     0.5348 H       
  34 H34           -3.5424     5.4036    -1.3653 H       
  35 H35           -2.8240     3.8699    -1.9130 H       
  36 H36           -4.5892     4.0116    -1.7325 H       
  37 H37           -4.5602     4.1466     1.9875 H       
  38 H38           -4.5563     5.5652     0.9124 H       
  39 H39           -5.6030     4.1732     0.5453 H       
  40 H40           -2.0406    -4.5720    -0.0120 H       
  41 H41           -3.1480    -5.7149    -1.8897 H       
  42 H42           -3.3958    -2.0185    -4.0034 H       
  43 H43           -2.2951    -0.8667    -2.1272 H       
  44 H44            4.5854     2.7139    -2.9821 H       
  45 H45            3.6561     1.2163    -4.7335 H       
  46 H46            1.5026     0.0583    -4.2917 H       
  47 H47           -6.1972    -3.6082    -3.9467 H       
  48 H48           -6.4733    -5.1437    -4.8037 H       
  49 H49           -6.0935    -5.1508    -3.0647 H       
@<TRIPOS>BOND
   1    1    2 ar
   2    1    7 1
   3    1    6 ar
   4    2    3 ar
   5    2   30 1
   6    3    4 ar
   7    3   14 1
   8    4    5 ar
   9    4   31 1
  10    5    6 ar
  11    5    9 1
  12    6   32 1
  13    7    8 1
  14    8   24 ar
  15    8   28 ar
  16    9   10 2
  17    9   11 1
  18   11   12 1
  19   11   13 1
  20   11   33 1
  21   12   34 1
  22   12   35 1
  23   12   36 1
  24   13   37 1
  25   13   38 1
  26   13   39 1
  27   14   15 1
  28   15   16 ar
  29   15   20 ar
  30   16   17 ar
  31   16   40 1
  32   17   18 ar
  33   17   41 1
  34   18   19 ar
  35   18   21 1
  36   19   20 ar
  37   19   42 1
  38   20   43 1
  39   21   22 2
  40   21   23 2
  41   21   29 1
  42   24   25 ar
  43   25   26 ar
  44   25   44 1
  45   26   27 ar
  46   26   45 1
  47   27   28 ar
  48   27   46 1
  49   29   47 1
  50   29   48 1
  51   29   49 1

#	End of record

