#	Name: ASD01940158
#	Creating user name:	WinNT
#	Creation time:	15. 06. 2019 20:11

#	Modifying user name:	WinNT
#	Modification time:	15. 06. 2019 20:11

#	Program:	/corina/corina34_cracker 3.40 0067  02.08.2006

@<TRIPOS>MOLECULE
ASD01940158
  43   45    0    0    0
SMALL
NO_CHARGES


@<TRIPOS>ATOM
   1 C1             0.2270     1.4325    -0.1829 C.3     
   2 F2            -2.1574    -4.9529     0.2186 F       
   3 C3            -1.2422    -5.3008     1.1495 C.ar    
   4 C4             0.0904    -4.9498     0.9790 C.ar    
   5 C5             1.0309    -5.3105     1.9424 C.ar    
   6 C6             0.6319    -6.0180     3.0664 C.ar    
   7 C7            -0.6964    -6.3653     3.2307 C.ar    
   8 C8            -1.6334    -6.0036     2.2778 C.ar    
   9 N9             0.4888    -4.2350    -0.1591 N.pl3   
  10 N10            2.3772    -4.9593     1.7753 N.am    
  11 C11            0.4245    -2.8384    -0.1654 C.ar    
  12 C12            0.0349    -2.1545     0.9781 C.ar    
  13 C13           -0.0276    -0.7741     0.9687 C.ar    
  14 C14            0.2972    -0.0729    -0.1775 C.ar    
  15 C15            0.6860    -0.7496    -1.3197 C.ar    
  16 C16            0.7565    -2.1301    -1.3163 C.ar    
  17 F17            1.1367    -2.7910    -2.4315 F       
  18 F18           -2.9309    -6.3403     2.4463 F       
  19 S19            3.5707    -5.9863     2.2884 S.o2    
  20 O20            4.7757    -5.3593     1.8714 O.2     
  21 O21            3.2895    -6.1897     3.6663 O.2     
  22 C22            4.0517    -9.0821     2.9923 C.3     
  23 C23            4.5354   -10.5198     3.1926 C.3     
  24 C24            5.2790    -9.3622     3.8619 C.3     
  25 C25            3.2892    -7.5125     1.3492 C.3     
  26 O26            4.2718    -8.4840     1.7133 O.3     
  27 H27            1.1899     1.8422     0.1220 H       
  28 H28           -0.0148     1.7813    -1.1869 H       
  29 H29           -0.5450     1.7627     0.5122 H       
  30 H30            1.3593    -6.2984     3.8139 H       
  31 H31           -1.0045    -6.9166     4.1068 H       
  32 H32            0.8090    -4.7094    -0.9423 H       
  33 H33            2.6100    -4.1146     1.3591 H       
  34 H34           -0.2195    -2.7009     1.8743 H       
  35 H35           -0.3308    -0.2421     1.8584 H       
  36 H36            0.9391    -0.1986    -2.2135 H       
  37 H37            3.1331    -8.7851     3.4984 H       
  38 H38            3.9353   -11.1684     3.8307 H       
  39 H39            5.0216   -11.0093     2.3487 H       
  40 H40            6.2544    -9.0902     3.4584 H       
  41 H41            5.1681    -9.2493     4.9403 H       
  42 H42            2.2952    -7.8992     1.5738 H       
  43 H43            3.3645    -7.3018     0.2824 H       
@<TRIPOS>BOND
   1    1   14 1
   2    1   27 1
   3    1   28 1
   4    1   29 1
   5    2    3 1
   6    3    4 ar
   7    3    8 ar
   8    4    5 ar
   9    4    9 1
  10    5    6 ar
  11    5   10 1
  12    6    7 ar
  13    6   30 1
  14    7    8 ar
  15    7   31 1
  16    8   18 1
  17    9   11 1
  18    9   32 1
  19   10   19 am
  20   10   33 1
  21   11   12 ar
  22   11   16 ar
  23   12   13 ar
  24   12   34 1
  25   13   14 ar
  26   13   35 1
  27   14   15 ar
  28   15   16 ar
  29   15   36 1
  30   16   17 1
  31   19   20 2
  32   19   21 2
  33   19   25 1
  34   22   23 1
  35   22   26 1
  36   22   24 1
  37   22   37 1
  38   23   24 1
  39   23   38 1
  40   23   39 1
  41   24   40 1
  42   24   41 1
  43   25   26 1
  44   25   42 1
  45   25   43 1

#	End of record

