#	Name: ASD03730675
#	Creating user name:	WinNT
#	Creation time:	15. 06. 2019 20:44

#	Modifying user name:	WinNT
#	Modification time:	15. 06. 2019 20:44

#	Program:	/corina/corina34_cracker 3.40 0067  02.08.2006

@<TRIPOS>MOLECULE
ASD03730675
  54   60    0    0    0
SMALL
NO_CHARGES


@<TRIPOS>ATOM
   1 O1            -0.0249     0.8834    -0.0047 O.3     
   2 C2            -0.0405    -0.4614    -0.2286 C.ar    
   3 C3             1.1864    -0.9045    -0.7170 C.ar    
   4 C4             2.0817     0.3026    -0.7888 C.3     
   5 C5             1.3392     1.3407     0.0641 C.3     
   6 O6            -1.7383    -3.7732    -0.2225 O.3     
   7 C7            -0.8765    -2.7249    -0.3394 C.ar    
   8 C8             0.3516    -3.1388    -0.8399 C.ar    
   9 C9             0.2524    -4.6316    -1.0863 C.3     
  10 C10           -1.2770    -4.8612    -1.0408 C.3     
  11 C11            1.3757    -2.2352    -1.0233 C.ar    
  12 C12           -1.0654    -1.3804    -0.0399 C.ar    
  13 N13            4.3193     0.3121    -1.2533 N.am    
  14 C14            3.4582     0.0239    -0.2570 C.2     
  15 C15            2.2886     0.7796    -2.1955 C.ar    
  16 C16            1.4291     1.1915    -3.2046 C.ar    
  17 C17            1.9468     1.5868    -4.4375 C.ar    
  18 C18            3.3119     1.5657    -4.6449 C.ar    
  19 C19            4.1659     1.1562    -3.6412 C.ar    
  20 C20            3.6631     0.7584    -2.4035 C.ar    
  21 O21            3.7398    -0.3805     0.8513 O.2     
  22 C22            5.7736     0.1743    -1.1428 C.3     
  23 O23            6.2816    -2.2844    -0.7698 O.3     
  24 C24            6.1809    -1.2118    -1.5718 C.2     
  25 C25            6.5047    -1.5847    -2.8230 C.2     
  26 C26            6.8188    -2.9622    -2.7715 C.2     
  27 C27            6.6681    -3.3487    -1.4920 C.2     
  28 C28            6.8946    -4.7401    -0.9591 C.3     
  29 F29            8.2273    -4.8736    -0.5553 F       
  30 F30            6.0513    -4.9636     0.1346 F       
  31 F31            6.6153    -5.6747    -1.9620 F       
  32 O32           -2.0164     1.6557    -2.1485 O.3     
  33 C33           -0.7065     1.9125    -2.0219 C.2     
  34 C34           -0.0368     1.2107    -2.9721 C.2     
  35 C35           -1.0616     0.4758    -3.7217 C.2     
  36 C36           -2.2376     0.8008    -3.1586 C.2     
  37 H37            1.4357     2.3369    -0.3678 H       
  38 H38            1.7006     1.3268     1.0923 H       
  39 H39            0.6567    -4.8927    -2.0643 H       
  40 H40            0.7541    -5.1911    -0.2968 H       
  41 H41           -1.5098    -5.8194    -0.5764 H       
  42 H42           -1.7063    -4.8012    -2.0409 H       
  43 H43            2.3277    -2.5699    -1.4079 H       
  44 H44           -2.0183    -1.0470     0.3437 H       
  45 H45            1.2831     1.9077    -5.2268 H       
  46 H46            3.7140     1.8715    -5.5995 H       
  47 H47            5.2316     1.1441    -3.8158 H       
  48 H48            6.2581     0.9103    -1.7844 H       
  49 H49            6.0766     0.3383    -0.1087 H       
  50 H50            6.5211    -0.9531    -3.6989 H       
  51 H51            7.1214    -3.5848    -3.6005 H       
  52 H52           -0.2596     2.5670    -1.2881 H       
  53 H53           -0.9031    -0.1906    -4.5566 H       
  54 H54           -3.2045     0.4328    -3.4686 H       
@<TRIPOS>BOND
   1    1    2 1
   2    1    5 1
   3    2    3 ar
   4    2   12 ar
   5    3    4 1
   6    3   11 ar
   7    4    5 1
   8    4   14 1
   9    4   15 1
  10    5   37 1
  11    5   38 1
  12    6    7 1
  13    6   10 1
  14    7    8 ar
  15    7   12 ar
  16    8    9 1
  17    8   11 ar
  18    9   10 1
  19    9   39 1
  20    9   40 1
  21   10   41 1
  22   10   42 1
  23   11   43 1
  24   12   44 1
  25   13   14 am
  26   13   20 1
  27   13   22 1
  28   14   21 2
  29   15   16 ar
  30   15   20 ar
  31   16   17 ar
  32   16   34 1
  33   17   18 ar
  34   17   45 1
  35   18   19 ar
  36   18   46 1
  37   19   20 ar
  38   19   47 1
  39   22   24 1
  40   22   48 1
  41   22   49 1
  42   23   24 1
  43   23   27 1
  44   24   25 2
  45   25   26 1
  46   25   50 1
  47   26   27 2
  48   26   51 1
  49   27   28 1
  50   28   29 1
  51   28   30 1
  52   28   31 1
  53   32   33 1
  54   32   36 1
  55   33   34 2
  56   33   52 1
  57   34   35 1
  58   35   36 2
  59   35   53 1
  60   36   54 1

#	End of record

