#	Name: ASD01881385
#	Creating user name:	WinNT
#	Creation time:	15. 06. 2019 19:42

#	Modifying user name:	WinNT
#	Modification time:	15. 06. 2019 19:42

#	Program:	/corina/corina34_cracker 3.40 0067  02.08.2006

@<TRIPOS>MOLECULE
ASD01881385
  36   38    0    0    0
SMALL
NO_CHARGES


@<TRIPOS>ATOM
   1 C1             0.1315     1.7285     0.0037 C.3     
   2 C2             0.0445     0.2021     0.0610 C.3     
   3 C3             0.6856    -0.3927    -1.1945 C.3     
   4 C4             2.1536     0.0321    -1.2676 C.3     
   5 C5             2.2405     1.5585    -1.3249 C.3     
   6 C6             1.5995     2.1533    -0.0695 C.3     
   7 O7            -0.5597     2.2019    -1.1540 O.3     
   8 C8            -0.5096     2.3233     1.2592 C.3     
   9 N9             2.8622    -0.4532    -0.0808 N.pl3   
  10 C10            2.5530    -0.1209     1.2100 C.2     
  11 C11            3.3955    -0.7356     2.0552 C.2     
  12 C12            4.3198    -1.5263     1.2389 C.ar    
  13 C13            5.3971    -2.3656     1.5303 C.ar    
  14 C14            6.0767    -2.9753     0.5130 C.ar    
  15 C15            5.7042    -2.7661    -0.8087 C.ar    
  16 C16            4.6449    -1.9418    -1.1178 C.ar    
  17 C17            3.9350    -1.3166    -0.0977 C.ar    
  18 Br18           7.5356    -4.1118     0.9080 Br      
  19 H19            0.5717    -0.1590     0.9440 H       
  20 H20           -1.0013    -0.1006     0.1131 H       
  21 H21            0.6236    -1.4802    -1.1537 H       
  22 H22            0.1584    -0.0316    -2.0775 H       
  23 H23            2.6103    -0.3916    -2.1620 H       
  24 H24            3.2864     1.8612    -1.3770 H       
  25 H25            1.7134     1.9196    -2.2080 H       
  26 H26            1.6614     3.2408    -0.1103 H       
  27 H27            2.1267     1.7923     0.8136 H       
  28 H28           -0.5456     3.1635    -1.2547 H       
  29 H29            0.0176     1.9622     2.1422 H       
  30 H30           -0.4477     3.4108     1.2184 H       
  31 H31           -1.5555     2.0207     1.3113 H       
  32 H32            1.7504     0.5388     1.5051 H       
  33 H33            3.3927    -0.6609     3.1326 H       
  34 H34            5.6925    -2.5321     2.5557 H       
  35 H35            6.2509    -3.2544    -1.6019 H       
  36 H36            4.3634    -1.7850    -2.1486 H       
@<TRIPOS>BOND
   1    1    2 1
   2    1    6 1
   3    1    7 1
   4    1    8 1
   5    2    3 1
   6    2   19 1
   7    2   20 1
   8    3    4 1
   9    3   21 1
  10    3   22 1
  11    4    5 1
  12    4    9 1
  13    4   23 1
  14    5    6 1
  15    5   24 1
  16    5   25 1
  17    6   26 1
  18    6   27 1
  19    7   28 1
  20    8   29 1
  21    8   30 1
  22    8   31 1
  23    9   10 1
  24    9   17 1
  25   10   11 2
  26   10   32 1
  27   11   12 1
  28   11   33 1
  29   12   13 ar
  30   12   17 ar
  31   13   14 ar
  32   13   34 1
  33   14   15 ar
  34   14   18 1
  35   15   16 ar
  36   15   35 1
  37   16   17 ar
  38   16   36 1

#	End of record

