#	Name: ASD01811968
#	Creating user name:	WinNT
#	Creation time:	15. 06. 2019 19:27

#	Modifying user name:	WinNT
#	Modification time:	15. 06. 2019 19:27

#	Program:	/corina/corina34_cracker 3.40 0067  02.08.2006

@<TRIPOS>MOLECULE
ASD01811968
  59   63    0    0    0
SMALL
NO_CHARGES


@<TRIPOS>ATOM
   1 C1            -0.0166     1.3757     0.0096 C.ar    
   2 C2             0.0021    -0.0041     0.0020 C.ar    
   3 C3             1.2113    -0.6873    -0.0127 C.ar    
   4 C4             2.4072     0.0013    -0.0200 C.ar    
   5 C5             1.1854     2.0821     0.0019 C.ar    
   6 C6             1.5304     3.5161     0.0059 C.2     
   7 C7             2.4078     1.3925    -0.0130 C.ar    
   8 N8             3.4148     2.3355    -0.0180 N.pl3   
   9 C9             2.8917     3.5861    -0.0070 C.2     
  10 C10            4.8472     2.0287    -0.0327 C.3     
  11 F11           -1.1937     2.0387     0.0188 F       
  12 F12            1.2167    -2.0383    -0.0196 F       
  13 C13            0.5919     4.6463     0.0200 C.2     
  14 N14            1.0593     5.9104     0.0220 N.am    
  15 O15           -0.6074     4.4411     0.0299 O.2     
  16 C16            0.1235     7.0374     0.0361 C.3     
  17 C17           -0.5890     9.7500     0.8834 C.3     
  18 C18           -1.2634     8.5194     1.4931 C.3     
  19 C19           -0.2860     7.3424     1.4784 C.3     
  20 C20            0.7978     8.2680    -0.5737 C.3     
  21 C21           -0.1795     9.4450    -0.5589 C.3     
  22 C22            5.2994     1.8088    -1.4533 C.ar    
  23 C23            5.7585     2.8739    -2.2150 C.ar    
  24 C24            6.1650     2.6296    -3.5154 C.ar    
  25 C25            6.0995     1.3297    -4.0121 C.ar    
  26 N26            5.6540     0.3386    -3.2508 N.ar    
  27 C27            5.2660     0.5429    -2.0084 C.ar    
  28 C28            6.5310     1.0515    -5.4039 C.2     
  29 N29            6.9911     1.9359    -6.2638 N.2     
  30 N30            7.2835     1.2686    -7.4601 N.pl3   
  31 C31            6.9870    -0.0387    -7.2957 C.2     
  32 C32            6.5265    -0.2069    -6.0372 C.2     
  33 C33            7.8175     1.8823    -8.6784 C.3     
  34 O34            1.1802     7.9832    -1.9208 O.3     
  35 H35           -0.9270    -0.5547     0.0079 H       
  36 H36            3.3420    -0.5395    -0.0308 H       
  37 H37            3.4669     4.5002    -0.0079 H       
  38 H38            5.4016     2.8613     0.4003 H       
  39 H39            5.0316     1.1268     0.5510 H       
  40 H40            2.0154     6.0740     0.0141 H       
  41 H41           -0.7616     6.7821    -0.5466 H       
  42 H42           -1.2853    10.5885     0.8939 H       
  43 H43            0.2961    10.0054     1.4660 H       
  44 H44           -1.5550     8.7366     2.5206 H       
  45 H45           -2.1484     8.2640     0.9104 H       
  46 H46           -0.7664     6.4657     1.9128 H       
  47 H47            0.5991     7.5978     2.0611 H       
  48 H48            1.6829     8.5234     0.0090 H       
  49 H49           -1.0646     9.1897    -1.1416 H       
  50 H50            0.3009    10.3217    -0.9933 H       
  51 H51            5.7975     3.8713    -1.8026 H       
  52 H52            6.5275     3.4354    -4.1364 H       
  53 H53            4.9091    -0.2882    -1.4183 H       
  54 H54            7.1023    -0.8142    -8.0385 H       
  55 H55            6.2088    -1.1399    -5.5956 H       
  56 H56            8.9069     1.8594    -8.6494 H       
  57 H57            7.4655     1.3284    -9.5487 H       
  58 H58            7.4775     2.9159    -8.7437 H       
  59 H59            1.6149     8.7207    -2.3705 H       
@<TRIPOS>BOND
   1    1    2 ar
   2    1    5 ar
   3    1   11 1
   4    2    3 ar
   5    2   35 1
   6    3    4 ar
   7    3   12 1
   8    4    7 ar
   9    4   36 1
  10    5    7 ar
  11    5    6 1
  12    6    9 2
  13    6   13 1
  14    7    8 1
  15    8    9 1
  16    8   10 1
  17    9   37 1
  18   10   22 1
  19   10   38 1
  20   10   39 1
  21   13   14 am
  22   13   15 2
  23   14   16 1
  24   14   40 1
  25   16   20 1
  26   16   19 1
  27   16   41 1
  28   17   18 1
  29   17   21 1
  30   17   42 1
  31   17   43 1
  32   18   19 1
  33   18   44 1
  34   18   45 1
  35   19   46 1
  36   19   47 1
  37   20   21 1
  38   20   34 1
  39   20   48 1
  40   21   49 1
  41   21   50 1
  42   22   23 ar
  43   22   27 ar
  44   23   24 ar
  45   23   51 1
  46   24   25 ar
  47   24   52 1
  48   25   26 ar
  49   25   28 1
  50   26   27 ar
  51   27   53 1
  52   28   29 2
  53   28   32 1
  54   29   30 1
  55   30   31 1
  56   30   33 1
  57   31   32 2
  58   31   54 1
  59   32   55 1
  60   33   56 1
  61   33   57 1
  62   33   58 1
  63   34   59 1

#	End of record

