#	Name: ASD09740536
#	Creating user name:	WinNT
#	Creation time:	15. 06. 2019 21:23

#	Modifying user name:	WinNT
#	Modification time:	15. 06. 2019 21:23

#	Program:	/corina/corina34_cracker 3.40 0067  02.08.2006

@<TRIPOS>MOLECULE
ASD09740536
  74   78    0    0    0
SMALL
NO_CHARGES


@<TRIPOS>ATOM
   1 N1            -0.7207     1.9406     1.3843 N.2     
   2 C2            -0.9474     0.6602     1.5410 C.2     
   3 C3             0.4997     2.3572     1.5749 C.2     
   4 S4             1.5195     0.9878     2.0084 S.3     
   5 C5             0.1258    -0.0842     1.8859 C.2     
   6 C6             0.9558     3.7568     1.4468 C.ar    
   7 C7             0.0500     4.7551     1.0963 C.ar    
   8 C8             2.2954     4.0799     1.6829 C.ar    
   9 C9             2.7261     5.3838     1.5653 C.ar    
  10 C10            1.8336     6.3857     1.2121 C.ar    
  11 C11            0.4858     6.0738     0.9773 C.ar    
  12 O12            2.2629     7.6675     1.0986 O.3     
  13 C13            3.6587     7.9039     1.2935 C.3     
  14 C14            4.0612     9.1971     0.5818 C.3     
  15 C15            3.9499     8.0334     2.7899 C.3     
  16 C16           -0.4375     7.1056     0.6122 C.1     
  17 N17           -1.1700     7.9242     0.3225 N.1     
  18 C18            0.1306    -1.5435     2.1199 C.ar    
  19 C19            1.0828    -2.3502     1.4901 C.ar    
  20 C20            1.0818    -3.7119     1.7127 C.ar    
  21 C21            0.1383    -4.2738     2.5588 C.ar    
  22 C22           -0.8058    -3.4803     3.1837 C.ar    
  23 C23           -0.8117    -2.1170     2.9741 C.ar    
  24 C24            2.2005    -1.9868     0.5365 C.3     
  25 C25            3.1488    -3.2046     0.5435 C.3     
  26 C26            2.1993    -4.3605     0.9236 C.3     
  27 N27            1.6660    -4.9979    -0.2829 N.am    
  28 C28            1.2500    -6.2792    -0.2403 C.2     
  29 N29            0.6611    -6.8327    -1.3188 N.am    
  30 O30            1.4060    -6.9357     0.7712 O.2     
  31 C31            0.5532    -6.0851    -2.5790 C.3     
  32 C32           -0.9130    -6.0758    -3.0229 C.3     
  33 C33           -1.4275    -7.5151    -3.0999 C.3     
  34 C34           -1.3460    -8.1625    -1.7156 C.3     
  35 C35            0.1203    -8.1975    -1.2586 C.3     
  36 C36           -2.8815    -7.5118    -3.5763 C.3     
  37 C37           -3.3498    -8.9310    -3.7700 C.2     
  38 O38           -4.6024    -9.1733    -4.1873 O.3     
  39 O39           -2.5979    -9.8507    -3.5496 O.2     
  40 C40           -4.9848   -10.5644    -4.3520 C.3     
  41 H41           -1.9277     0.2281     1.4039 H       
  42 H42           -0.9860     4.5084     0.9170 H       
  43 H43            2.9952     3.3050     1.9589 H       
  44 H44            3.7623     5.6267     1.7491 H       
  45 H45            4.2291     7.0707     0.8831 H       
  46 H46            3.4907    10.0304     0.9922 H       
  47 H47            5.1258     9.3774     0.7305 H       
  48 H48            3.8537     9.1049    -0.4843 H       
  49 H49            3.6631     7.1120     3.2969 H       
  50 H50            5.0145     8.2137     2.9386 H       
  51 H51            3.3795     8.8666     3.2003 H       
  52 H52            0.1406    -5.3400     2.7308 H       
  53 H53           -1.5368    -3.9280     3.8407 H       
  54 H54           -1.5489    -1.4969     3.4624 H       
  55 H55            1.8042    -1.8217    -0.4654 H       
  56 H56            2.7238    -1.0977     0.8884 H       
  57 H57            3.5797    -3.3659    -0.4447 H       
  58 H58            3.9306    -3.0827     1.2932 H       
  59 H59            2.7219    -5.0923     1.5395 H       
  60 H60            1.6124    -4.4979    -1.1123 H       
  61 H61            0.8954    -5.0614    -2.4270 H       
  62 H62            1.1633    -6.5668    -3.3431 H       
  63 H63           -1.5078    -5.5149    -2.3021 H       
  64 H64           -0.9931    -5.6078    -4.0041 H       
  65 H65           -0.8167    -8.0820    -3.8025 H       
  66 H66           -1.9367    -7.5819    -1.0071 H       
  67 H67           -1.7344    -9.1797    -1.7663 H       
  68 H68            0.6924    -8.8523    -1.9158 H       
  69 H69            0.1751    -8.5660    -0.2343 H       
  70 H70           -3.5070    -7.0213    -2.8305 H       
  71 H71           -2.9530    -6.9734    -4.5213 H       
  72 H72           -6.0188   -10.6190    -4.6924 H       
  73 H73           -4.3343   -11.0352    -5.0891 H       
  74 H74           -4.8883   -11.0831    -3.3982 H       
@<TRIPOS>BOND
   1    1    2 1
   2    1    3 2
   3    2    5 2
   4    2   41 1
   5    3    4 1
   6    3    6 1
   7    4    5 1
   8    5   18 1
   9    6    7 ar
  10    6    8 ar
  11    7   11 ar
  12    7   42 1
  13    8    9 ar
  14    8   43 1
  15    9   10 ar
  16    9   44 1
  17   10   11 ar
  18   10   12 1
  19   11   16 1
  20   12   13 1
  21   13   14 1
  22   13   15 1
  23   13   45 1
  24   14   46 1
  25   14   47 1
  26   14   48 1
  27   15   49 1
  28   15   50 1
  29   15   51 1
  30   16   17 3
  31   18   19 ar
  32   18   23 ar
  33   19   20 ar
  34   19   24 1
  35   20   21 ar
  36   20   26 1
  37   21   22 ar
  38   21   52 1
  39   22   23 ar
  40   22   53 1
  41   23   54 1
  42   24   25 1
  43   24   55 1
  44   24   56 1
  45   25   26 1
  46   25   57 1
  47   25   58 1
  48   26   27 1
  49   26   59 1
  50   27   28 am
  51   27   60 1
  52   28   29 am
  53   28   30 2
  54   29   31 1
  55   29   35 1
  56   31   32 1
  57   31   61 1
  58   31   62 1
  59   32   33 1
  60   32   63 1
  61   32   64 1
  62   33   34 1
  63   33   36 1
  64   33   65 1
  65   34   35 1
  66   34   66 1
  67   34   67 1
  68   35   68 1
  69   35   69 1
  70   36   37 1
  71   36   70 1
  72   36   71 1
  73   37   38 1
  74   37   39 2
  75   38   40 1
  76   40   72 1
  77   40   73 1
  78   40   74 1

#	End of record

