#	Name: ASD01811982
#	Creating user name:	WinNT
#	Creation time:	15. 06. 2019 19:27

#	Modifying user name:	WinNT
#	Modification time:	15. 06. 2019 19:27

#	Program:	/corina/corina34_cracker 3.40 0067  02.08.2006

@<TRIPOS>MOLECULE
ASD01811982
  57   61    0    0    0
SMALL
NO_CHARGES


@<TRIPOS>ATOM
   1 C1            -0.0166     1.3715     0.0096 C.ar    
   2 C2             0.0021    -0.0041     0.0020 C.ar    
   3 C3             1.2110    -0.6791    -0.0132 C.ar    
   4 C4             2.4017     0.0260    -0.0203 C.ar    
   5 C5             2.3942     1.4053    -0.0128 C.ar    
   6 C6             1.2300    -2.1860    -0.0214 C.3     
   7 C7             3.7129    -0.7167    -0.0358 C.3     
   8 C8             4.0762    -1.0649    -1.4563 C.ar    
   9 C9             3.6496    -2.2618    -2.0030 C.ar    
  10 C10            4.8303    -0.1839    -2.2103 C.ar    
  11 C11            5.1656    -0.4975    -3.5119 C.ar    
  12 C12            4.7433    -1.7043    -4.0660 C.ar    
  13 C13            3.9795    -2.5857    -3.3035 C.ar    
  14 N14           -0.4810     3.7062     0.0242 N.am    
  15 C15           -1.1292     2.3898     0.0196 C.3     
  16 C16            1.1793     2.0931     0.0020 C.ar    
  17 C17            0.8517     3.5317     0.0129 C.2     
  18 C18           -1.1725     4.9978     0.0333 C.3     
  19 C19           -0.7824     5.7967    -1.2141 C.3     
  20 C20           -1.4472     7.1745    -1.1567 C.3     
  21 O21           -1.0505     7.8438     0.0420 O.3     
  22 C22           -1.4307     7.1664     1.2415 C.3     
  23 C23           -0.7652     5.7883     1.2805 C.3     
  24 O24           -1.2226     5.1023    -2.3829 O.3     
  25 O25            1.6701     4.4305     0.0132 O.2     
  26 C26            5.1006    -2.0469    -5.4649 C.2     
  27 C27            4.7589    -3.1794    -6.1265 C.2     
  28 O28            5.2837    -3.0852    -7.3632 O.3     
  29 C29            5.9322    -1.9160    -7.4491 C.2     
  30 N30            5.8223    -1.2845    -6.3168 N.2     
  31 C31            6.6655    -1.4102    -8.6646 C.3     
  32 H32           -0.9256    -0.5571     0.0083 H       
  33 H33            3.3258     1.9518    -0.0180 H       
  34 H34            1.2248    -2.5438    -1.0510 H       
  35 H35            2.1294    -2.5408     0.4819 H       
  36 H36            0.3497    -2.5634     0.4988 H       
  37 H37            4.4919    -0.0876     0.3947 H       
  38 H38            3.6194    -1.6312     0.5499 H       
  39 H39            3.0577    -2.9441    -1.4111 H       
  40 H40            5.1570     0.7511    -1.7799 H       
  41 H41            5.7538     0.1914    -4.1000 H       
  42 H42            3.6462    -3.5206    -3.7293 H       
  43 H43           -1.7462     2.2792    -0.8721 H       
  44 H44           -1.7390     2.2695     0.9150 H       
  45 H45           -2.2501     4.8344     0.0394 H       
  46 H46            0.3006     5.9158    -1.2464 H       
  47 H47           -1.1389     7.7631    -2.0207 H       
  48 H48           -2.5307     7.0559    -1.1653 H       
  49 H49           -1.1104     7.7493     2.1051 H       
  50 H50           -2.5139     7.0478     1.2643 H       
  51 H51           -1.0887     5.2527     2.1730 H       
  52 H52            0.3182     5.9073     1.2986 H       
  53 H53           -1.0086     5.5522    -3.2117 H       
  54 H54            4.1768    -4.0011    -5.7361 H       
  55 H55            6.5875    -2.1435    -9.4673 H       
  56 H56            6.2242    -0.4679    -8.9893 H       
  57 H57            7.7152    -1.2534    -8.4165 H       
@<TRIPOS>BOND
   1    1    2 ar
   2    1   16 ar
   3    1   15 1
   4    2    3 ar
   5    2   32 1
   6    3    4 ar
   7    3    6 1
   8    4    5 ar
   9    4    7 1
  10    5   16 ar
  11    5   33 1
  12    6   34 1
  13    6   35 1
  14    6   36 1
  15    7    8 1
  16    7   37 1
  17    7   38 1
  18    8   10 ar
  19    8    9 ar
  20    9   13 ar
  21    9   39 1
  22   10   11 ar
  23   10   40 1
  24   11   12 ar
  25   11   41 1
  26   12   13 ar
  27   12   26 1
  28   13   42 1
  29   14   15 1
  30   14   17 am
  31   14   18 1
  32   15   43 1
  33   15   44 1
  34   16   17 1
  35   17   25 2
  36   18   19 1
  37   18   23 1
  38   18   45 1
  39   19   20 1
  40   19   24 1
  41   19   46 1
  42   20   21 1
  43   20   47 1
  44   20   48 1
  45   21   22 1
  46   22   23 1
  47   22   49 1
  48   22   50 1
  49   23   51 1
  50   23   52 1
  51   24   53 1
  52   26   27 2
  53   26   30 1
  54   27   28 1
  55   27   54 1
  56   28   29 1
  57   29   30 2
  58   29   31 1
  59   31   55 1
  60   31   56 1
  61   31   57 1

#	End of record

