#	Name: ASD01200094
#	Creating user name:	WinNT
#	Creation time:	15. 06. 2019 19:08

#	Modifying user name:	WinNT
#	Modification time:	15. 06. 2019 19:08

#	Program:	/corina/corina34_cracker 3.40 0067  02.08.2006

@<TRIPOS>MOLECULE
ASD01200094
  52   54    0    0    0
SMALL
NO_CHARGES


@<TRIPOS>ATOM
   1 C1            -0.3100     1.7711     1.0236 C.2     
   2 C2            -0.2211     0.4096     0.4549 C.ar    
   3 C3             1.0215    -0.2102     0.3140 C.ar    
   4 C4             1.1003    -1.4860    -0.2188 C.ar    
   5 C5            -0.0537    -2.1482    -0.6125 C.ar    
   6 C6            -1.2909    -1.5358    -0.4747 C.ar    
   7 C7            -1.3794    -0.2618     0.0628 C.ar    
   8 O8             0.6999     2.3526     1.3694 O.2     
   9 N9            -1.5104     2.3700     1.1537 N.am    
  10 S10           -0.2603     4.5777     2.2195 S.3     
  11 C11           -1.5940     3.6493     1.6881 C.2     
  12 N12           -2.6947     4.3134     1.8561 N.2     
  13 C13           -2.5901     5.5208     2.3790 C.2     
  14 C14           -1.3417     5.8947     2.6664 C.2     
  15 C15           -3.7837     6.4056     2.6305 C.3     
  16 O16           -2.4180    -2.1883    -0.8626 O.3     
  17 C17           -2.9837    -1.8359    -2.0468 C.ar    
  18 C18           -4.1534    -2.4519    -2.4690 C.ar    
  19 C19           -4.7265    -2.0915    -3.6728 C.ar    
  20 C20           -4.1356    -1.1180    -4.4574 C.ar    
  21 C21           -2.9704    -0.5027    -4.0391 C.ar    
  22 C22           -2.3960    -0.8555    -2.8331 C.ar    
  23 S23           -6.2116    -2.8731    -4.2097 S.o2    
  24 O24           -6.1726    -2.7644    -5.6260 O.2     
  25 O25           -6.1900    -4.1426    -3.5715 O.2     
  26 C26           -7.5384    -1.8407    -3.5283 C.3     
  27 O27            2.3099    -2.0901    -0.3568 O.3     
  28 C28            2.3114    -3.4385    -0.8299 C.3     
  29 C29            2.2505    -3.4426    -2.3587 C.3     
  30 C30            3.5908    -4.1395    -0.3686 C.3     
  31 H31            1.9203     0.3046     0.6198 H       
  32 H32            0.0115    -3.1431    -1.0276 H       
  33 H33           -2.3433     0.2124     0.1742 H       
  34 H34           -2.3159     1.9076     0.8740 H       
  35 H35           -1.0461     6.8394     3.0983 H       
  36 H36           -4.1688     6.2199     3.6332 H       
  37 H37           -3.4861     7.4506     2.5434 H       
  38 H38           -4.5595     6.1864     1.8969 H       
  39 H39           -4.6149    -3.2127    -1.8570 H       
  40 H40           -4.5850    -0.8381    -5.3987 H       
  41 H41           -2.5109     0.2572    -4.6537 H       
  42 H42           -1.4882    -0.3715    -2.5047 H       
  43 H43           -7.4475    -0.8274    -3.9195 H       
  44 H44           -8.5049    -2.2554    -3.8146 H       
  45 H45           -7.4600    -1.8189    -2.4413 H       
  46 H46            1.4445    -3.9648    -0.4303 H       
  47 H47            1.3390    -2.9433    -2.6873 H       
  48 H48            3.1174    -2.9164    -2.7583 H       
  49 H49            2.2516    -4.4712    -2.7196 H       
  50 H50            3.6342    -4.1365     0.7205 H       
  51 H51            3.5919    -5.1680    -0.7295 H       
  52 H52            4.4577    -3.6132    -0.7682 H       
@<TRIPOS>BOND
   1    1    2 1
   2    1    8 2
   3    1    9 am
   4    2    3 ar
   5    2    7 ar
   6    3    4 ar
   7    3   31 1
   8    4    5 ar
   9    4   27 1
  10    5    6 ar
  11    5   32 1
  12    6    7 ar
  13    6   16 1
  14    7   33 1
  15    9   11 1
  16    9   34 1
  17   10   11 1
  18   10   14 1
  19   11   12 2
  20   12   13 1
  21   13   14 2
  22   13   15 1
  23   14   35 1
  24   15   36 1
  25   15   37 1
  26   15   38 1
  27   16   17 1
  28   17   18 ar
  29   17   22 ar
  30   18   19 ar
  31   18   39 1
  32   19   20 ar
  33   19   23 1
  34   20   21 ar
  35   20   40 1
  36   21   22 ar
  37   21   41 1
  38   22   42 1
  39   23   24 2
  40   23   25 2
  41   23   26 1
  42   26   43 1
  43   26   44 1
  44   26   45 1
  45   27   28 1
  46   28   29 1
  47   28   30 1
  48   28   46 1
  49   29   47 1
  50   29   48 1
  51   29   49 1
  52   30   50 1
  53   30   51 1
  54   30   52 1

#	End of record

