#	Name: ASD00311197
#	Creating user name:	WinNT
#	Creation time:	15. 06. 2019 18:34

#	Modifying user name:	WinNT
#	Modification time:	15. 06. 2019 18:34

#	Program:	/corina/corina34_cracker 3.40 0067  02.08.2006

@<TRIPOS>MOLECULE
ASD00311197
  40   43    0    0    0
SMALL
NO_CHARGES


@<TRIPOS>ATOM
   1 C1            -0.0167     1.3777     0.0096 C.2     
   2 C2             0.0021    -0.0041     0.0020 C.2     
   3 C3             1.2585    -0.6766    -0.0136 C.2     
   4 C4             2.4315     0.0673    -0.0208 C.2     
   5 C5             2.3576     1.4751    -0.0126 C.2     
   6 N6             1.1650     2.0903     0.0022 N.am    
   7 C7            -1.3434    -0.5753     0.0123 C.2     
   8 C8            -2.3231     0.3266     0.0268 C.2     
   9 S9            -1.6792     1.9565     0.0358 S.3     
  10 O10            3.3825     2.1371    -0.0188 O.2     
  11 C11            3.7475    -0.6122    -0.0366 C.ar    
  12 C12            4.5933    -0.4748    -1.1371 C.ar    
  13 C13            5.8183    -1.1099    -1.1456 C.ar    
  14 C14            6.2081    -1.8815    -0.0656 C.ar    
  15 C15            5.3734    -2.0219     1.0287 C.ar    
  16 C16            4.1485    -1.3871     1.0515 C.ar    
  17 O17            1.3084    -2.0292    -0.0209 O.3     
  18 C18           -1.5961    -2.0355     0.0065 C.ar    
  19 C19           -1.7279    -2.7204    -1.2053 C.ar    
  20 C20           -1.9643    -4.0865    -1.2013 C.ar    
  21 C21           -2.0694    -4.7682    -0.0006 C.ar    
  22 C22           -1.9392    -4.0921     1.1992 C.ar    
  23 C23           -1.6976    -2.7329     1.2089 C.ar    
  24 C24           -2.3273    -6.2529    -0.0009 C.3     
  25 O25           -1.6252    -2.0491    -2.3832 O.3     
  26 F26           -2.0925    -4.7530    -2.3695 F       
  27 Cl27          -4.0151    -0.0612     0.0415 Cl      
  28 H28            1.1329     3.0598     0.0077 H       
  29 H29            4.2899     0.1270    -1.9810 H       
  30 H30            6.4739    -1.0046    -1.9974 H       
  31 H31            7.1679    -2.3766    -0.0769 H       
  32 H32            5.6830    -2.6262     1.8686 H       
  33 H33            3.4997    -1.4936     1.9084 H       
  34 H34            2.2056    -2.3896    -0.0315 H       
  35 H35           -2.0228    -4.6303     2.1318 H       
  36 H36           -1.5921    -2.2096     2.1477 H       
  37 H37           -1.3771    -6.7868    -0.0121 H       
  38 H38           -2.8863    -6.5248     0.8945 H       
  39 H39           -2.9052    -6.5212    -0.8853 H       
  40 H40           -0.7251    -2.0052    -2.7337 H       
@<TRIPOS>BOND
   1    1    2 2
   2    1    6 1
   3    1    9 1
   4    2    3 1
   5    2    7 1
   6    3    4 2
   7    3   17 1
   8    4    5 1
   9    4   11 1
  10    5    6 am
  11    5   10 2
  12    6   28 1
  13    7    8 2
  14    7   18 1
  15    8    9 1
  16    8   27 1
  17   11   12 ar
  18   11   16 ar
  19   12   13 ar
  20   12   29 1
  21   13   14 ar
  22   13   30 1
  23   14   15 ar
  24   14   31 1
  25   15   16 ar
  26   15   32 1
  27   16   33 1
  28   17   34 1
  29   18   19 ar
  30   18   23 ar
  31   19   20 ar
  32   19   25 1
  33   20   21 ar
  34   20   26 1
  35   21   22 ar
  36   21   24 1
  37   22   23 ar
  38   22   35 1
  39   23   36 1
  40   24   37 1
  41   24   38 1
  42   24   39 1
  43   25   40 1

#	End of record

