#	Name: ASD01730031
#	Creating user name:	WinNT
#	Creation time:	15. 06. 2019 19:23

#	Modifying user name:	WinNT
#	Modification time:	15. 06. 2019 19:23

#	Program:	/corina/corina34_cracker 3.40 0067  02.08.2006

@<TRIPOS>MOLECULE
ASD01730031
  47   48    0    0    0
SMALL
NO_CHARGES


@<TRIPOS>ATOM
   1 C1             0.0549     1.9223     0.1969 C.2     
   2 C2             0.8196     0.6752     0.5591 C.3     
   3 N3             0.6760     3.0710     0.1195 N.2     
   4 N4            -1.2804     1.8524    -0.0552 N.pl3   
   5 N5             2.6787     2.0378     0.5597 N.2     
   6 C6             2.0055     3.1373     0.3517 C.2     
   7 S7             2.8077     4.7058     0.3693 S.3     
   8 C8             4.0811     4.3699     1.6120 C.3     
   9 C9             4.7459     3.0540     1.2969 C.ar    
  10 C10            4.0192     1.9782     0.7919 C.ar    
  11 C11            6.1044     2.9284     1.5180 C.ar    
  12 C12            6.7541     1.7360     1.2368 C.ar    
  13 C13            6.0384     0.6606     0.7297 C.ar    
  14 C14            4.6845     0.7758     0.5078 C.ar    
  15 O15            8.0909     1.6207     1.4574 O.3     
  16 C16            8.6940     0.3634     1.1450 C.3     
  17 F17            8.5116     0.0835    -0.2135 F       
  18 F18           10.0625     0.4190     1.4301 F       
  19 F19            8.0982    -0.6431     1.9126 F       
  20 C20           -2.0466     3.0788    -0.2900 C.3     
  21 C21           -2.0413     3.4051    -1.7848 C.3     
  22 C22           -2.8416     4.6859    -2.0301 C.3     
  23 C23           -1.9519     0.5509    -0.0918 C.3     
  24 C24           -2.4521     0.1955     1.3097 C.3     
  25 C25           -3.1534    -1.1638     1.2715 C.3     
  26 H26            1.2848     0.8052     1.5363 H       
  27 H27            0.1362    -0.1733     0.5921 H       
  28 H28            1.5908     0.4917    -0.1890 H       
  29 H29            4.8248     5.1667     1.5959 H       
  30 H30            3.6221     4.3189     2.5993 H       
  31 H31            6.6635     3.7643     1.9119 H       
  32 H32            6.5441    -0.2677     0.5084 H       
  33 H33            4.1316    -0.0637     0.1130 H       
  34 H34           -3.0733     2.9359     0.0470 H       
  35 H35           -1.5938     3.9017     0.2631 H       
  36 H36           -1.0147     3.5480    -2.1219 H       
  37 H37           -2.4942     2.5823    -2.3380 H       
  38 H38           -2.8378     4.9184    -3.0950 H       
  39 H39           -3.8682     4.5431    -1.6930 H       
  40 H40           -2.3887     5.5088    -1.4769 H       
  41 H41           -2.7972     0.5973    -0.7784 H       
  42 H42           -1.2498    -0.2108    -0.4310 H       
  43 H43           -1.6068     0.1491     1.9963 H       
  44 H44           -3.1543     0.9572     1.6489 H       
  45 H45           -3.9987    -1.1173     0.5849 H       
  46 H46           -2.4513    -1.9254     0.9324 H       
  47 H47           -3.5098    -1.4170     2.2700 H       
@<TRIPOS>BOND
   1    1    2 1
   2    1    3 2
   3    1    4 1
   4    2   26 1
   5    2   27 1
   6    2   28 1
   7    3    6 1
   8    4   20 1
   9    4   23 1
  10    5    6 2
  11    5   10 1
  12    6    7 1
  13    7    8 1
  14    8    9 1
  15    8   29 1
  16    8   30 1
  17    9   10 ar
  18    9   11 ar
  19   10   14 ar
  20   11   12 ar
  21   11   31 1
  22   12   13 ar
  23   12   15 1
  24   13   14 ar
  25   13   32 1
  26   14   33 1
  27   15   16 1
  28   16   17 1
  29   16   18 1
  30   16   19 1
  31   20   21 1
  32   20   34 1
  33   20   35 1
  34   21   22 1
  35   21   36 1
  36   21   37 1
  37   22   38 1
  38   22   39 1
  39   22   40 1
  40   23   24 1
  41   23   41 1
  42   23   42 1
  43   24   25 1
  44   24   43 1
  45   24   44 1
  46   25   45 1
  47   25   46 1
  48   25   47 1

#	End of record

