#	Name: ASD01410438
#	Creating user name:	WinNT
#	Creation time:	15. 06. 2019 19:17

#	Modifying user name:	WinNT
#	Modification time:	15. 06. 2019 19:17

#	Program:	/corina/corina34_cracker 3.40 0067  02.08.2006

@<TRIPOS>MOLECULE
ASD01410438
  58   62    0    0    0
SMALL
NO_CHARGES


@<TRIPOS>ATOM
   1 C1            -2.5979     4.6075    -2.8190 C.ar    
   2 C2            -3.2418     4.1459    -3.9660 C.ar    
   3 C3            -4.3092     3.2777    -3.8560 C.ar    
   4 C4            -4.7429     2.8637    -2.6103 C.ar    
   5 C5            -4.1072     3.3186    -1.4631 C.ar    
   6 C6            -3.0312     4.1858    -1.5647 C.ar    
   7 C7            -2.3397     4.6809    -0.3206 C.3     
   8 O8            -4.5370     2.9095    -0.2406 O.3     
   9 C9            -5.5668     2.0237    -0.1898 C.ar    
  10 C10           -5.3252     0.6684    -0.3972 C.ar    
  11 C11           -6.3570    -0.2447    -0.3495 C.ar    
  12 C12           -7.6500     0.1896    -0.0917 C.ar    
  13 C13           -7.8973     1.5587     0.1189 C.ar    
  14 C14           -6.8483     2.4729     0.0735 C.ar    
  15 F15           -2.4351     3.7111     0.6832 F       
  16 F16           -0.9921     4.9285    -0.6032 F       
  17 F17           -2.9500     5.8626     0.1132 F       
  18 N18           -8.7171    -0.6866    -0.0343 N.pl3   
  19 C19           -9.9578    -0.2349     0.2165 C.2     
  20 N20          -10.2376     1.0229     0.4182 N.2     
  21 C21           -9.2855     1.9744     0.3888 C.2     
  22 O22           -9.5634     3.1458     0.5798 O.2     
  23 C23           -8.4943    -2.1186    -0.2490 C.3     
  24 C24           -8.3200    -2.8048     1.0814 C.ar    
  25 C25           -9.4307    -3.1882     1.8132 C.ar    
  26 C26           -9.2706    -3.8185     3.0353 C.ar    
  27 C27           -7.9997    -4.0658     3.5253 C.ar    
  28 C28           -6.8890    -3.6832     2.7930 C.ar    
  29 C29           -7.0491    -3.0568     1.5689 C.ar    
  30 F30           -5.9651    -2.6834     0.8543 F       
  31 F31           -7.8435    -4.6802     4.7183 F       
  32 F32          -10.6710    -2.9469     1.3350 F       
  33 C33           -1.4503     5.5407    -2.9346 C.ar    
  34 C34           -1.4159     6.7130    -2.1847 C.ar    
  35 N35           -0.3990     7.5454    -2.2843 N.ar    
  36 C36            0.6224     7.3046    -3.0927 C.ar    
  37 C37            0.6586     6.1528    -3.8735 C.ar    
  38 C38           -0.3851     5.2518    -3.7948 C.ar    
  39 C39            1.8255     5.8895    -4.7900 C.3     
  40 N40            1.6707     8.2135    -3.1625 N.pl3   
  41 H41           -2.9057     4.4677    -4.9406 H       
  42 H42           -4.8073     2.9212    -4.7455 H       
  43 H43           -5.5787     2.1846    -2.5294 H       
  44 H44           -4.3198     0.3290    -0.5979 H       
  45 H45           -6.1601    -1.2940    -0.5124 H       
  46 H46           -7.0346     3.5244     0.2350 H       
  47 H47          -10.7655    -0.9510     0.2526 H       
  48 H48           -9.3519    -2.5458    -0.7686 H       
  49 H49           -7.5970    -2.2604    -0.8513 H       
  50 H50          -10.1372    -4.1170     3.6066 H       
  51 H51           -5.8975    -3.8758     3.1755 H       
  52 H52           -2.2311     6.9429    -1.5147 H       
  53 H53           -0.3830     4.3498    -4.3888 H       
  54 H54            2.5896     5.3274    -4.2530 H       
  55 H55            1.4882     5.3128    -5.6512 H       
  56 H56            2.2428     6.8378    -5.1286 H       
  57 H57            1.6516     9.0183    -2.6214 H       
  58 H58            2.4216     8.0433    -3.7524 H       
@<TRIPOS>BOND
   1    1    2 ar
   2    1   33 1
   3    1    6 ar
   4    2    3 ar
   5    2   41 1
   6    3    4 ar
   7    3   42 1
   8    4    5 ar
   9    4   43 1
  10    5    6 ar
  11    5    8 1
  12    6    7 1
  13    7   15 1
  14    7   16 1
  15    7   17 1
  16    8    9 1
  17    9   10 ar
  18    9   14 ar
  19   10   11 ar
  20   10   44 1
  21   11   12 ar
  22   11   45 1
  23   12   13 ar
  24   12   18 1
  25   13   14 ar
  26   13   21 1
  27   14   46 1
  28   18   19 1
  29   18   23 1
  30   19   20 2
  31   19   47 1
  32   20   21 1
  33   21   22 2
  34   23   24 1
  35   23   48 1
  36   23   49 1
  37   24   25 ar
  38   24   29 ar
  39   25   26 ar
  40   25   32 1
  41   26   27 ar
  42   26   50 1
  43   27   28 ar
  44   27   31 1
  45   28   29 ar
  46   28   51 1
  47   29   30 1
  48   33   34 ar
  49   33   38 ar
  50   34   35 ar
  51   34   52 1
  52   35   36 ar
  53   36   37 ar
  54   36   40 1
  55   37   38 ar
  56   37   39 1
  57   38   53 1
  58   39   54 1
  59   39   55 1
  60   39   56 1
  61   40   57 1
  62   40   58 1

#	End of record

