#	Name: ASD01890413
#	Creating user name:	WinNT
#	Creation time:	15. 06. 2019 19:50

#	Modifying user name:	WinNT
#	Modification time:	15. 06. 2019 19:50

#	Program:	/corina/corina34_cracker 3.40 0067  02.08.2006

@<TRIPOS>MOLECULE
ASD01890413
  63   64    0    0    0
SMALL
NO_CHARGES


@<TRIPOS>ATOM
   1 C1             0.0437     1.6083     0.2258 C.2     
   2 C2             0.0612     0.1083     0.0823 C.3     
   3 C3             1.4858    -0.3683    -0.0376 C.2     
   4 O4             0.9030     2.1638     0.8684 O.2     
   5 O5            -0.9234     2.3278    -0.3648 O.3     
   6 O6             1.9357    -1.1388     0.7771 O.2     
   7 O7             2.2550     0.0633    -1.0495 O.3     
   8 C8            -0.5881    -0.5293     1.3123 C.3     
   9 C9            -1.9851     0.0607     1.5151 C.3     
  10 C10           -2.5663    -0.4566     2.8057 C.2     
  11 O11           -1.9264    -1.2218     3.4951 O.2     
  12 C12           -3.9106    -0.0332     3.2292 C.ar    
  13 C13           -4.4535    -0.5111     4.4262 C.ar    
  14 C14           -5.7138    -0.1097     4.8161 C.ar    
  15 C15           -6.4412     0.7634     4.0261 C.ar    
  16 C16           -5.9109     1.2408     2.8402 C.ar    
  17 C17           -4.6495     0.8536     2.4396 C.ar    
  18 C18           -7.8182     1.1961     4.4593 C.3     
  19 C19           -7.7102     2.4610     5.3133 C.3     
  20 C20           -0.6966    -2.0185     1.1079 C.ar    
  21 C21           -0.0647    -2.8836     1.9816 C.ar    
  22 C22           -0.1639    -4.2495     1.7946 C.ar    
  23 C23           -0.8957    -4.7508     0.7329 C.ar    
  24 C24           -1.5278    -3.8844    -0.1411 C.ar    
  25 C25           -1.4326    -2.5189     0.0501 C.ar    
  26 Cl26          -1.0202    -6.4662     0.4971 Cl      
  27 C27           -0.8776     3.7678    -0.1840 C.3     
  28 O28            0.1766     4.3262    -1.0117 O.3     
  29 C29           -0.0632     4.4099    -2.3297 C.2     
  30 O30           -1.1191     4.0292    -2.7770 O.2     
  31 C31            0.9844     4.9788    -3.2516 C.3     
  32 C32            3.6169    -0.4373    -1.1022 C.3     
  33 O33            3.6093    -1.8128    -1.5673 O.3     
  34 C34            3.3908    -2.0122    -2.8766 C.2     
  35 O35            3.2118    -1.0686    -3.6098 O.2     
  36 C36            3.3687    -3.4129    -3.4321 C.3     
  37 H37           -0.4940    -0.1778    -0.8110 H       
  38 H38            0.0231    -0.3269     2.1918 H       
  39 H39           -1.9177     1.1478     1.5570 H       
  40 H40           -2.6272    -0.2318     0.6844 H       
  41 H41           -3.8874    -1.1930     5.0433 H       
  42 H42           -6.1344    -0.4779     5.7401 H       
  43 H43           -6.4847     1.9218     2.2292 H       
  44 H44           -4.2350     1.2308     1.5164 H       
  45 H45           -8.4277     1.4027     3.5795 H       
  46 H46           -8.2817     0.4015     5.0439 H       
  47 H47           -7.1007     2.2544     6.1931 H       
  48 H48           -7.2467     3.2557     4.7287 H       
  49 H49           -8.7061     2.7740     5.6266 H       
  50 H50            0.5068    -2.4922     2.8101 H       
  51 H51            0.3301    -4.9253     2.4770 H       
  52 H52           -2.0992    -4.2752    -0.9701 H       
  53 H53           -1.9297    -1.8426    -0.6296 H       
  54 H54           -1.8349     4.2010    -0.4736 H       
  55 H55           -0.6772     3.9963     0.8628 H       
  56 H56            1.8615     5.2659    -2.6717 H       
  57 H57            1.2664     4.2272    -3.9889 H       
  58 H58            0.5830     5.8548    -3.7611 H       
  59 H59            4.2028     0.1748    -1.7879 H       
  60 H60            4.0592    -0.3928    -0.1070 H       
  61 H61            3.5479    -4.1258    -2.6273 H       
  62 H62            2.3957    -3.6099    -3.8822 H       
  63 H63            4.1466    -3.5160    -4.1887 H       
@<TRIPOS>BOND
   1    1    2 1
   2    1    4 2
   3    1    5 1
   4    2    3 1
   5    2    8 1
   6    2   37 1
   7    3    6 2
   8    3    7 1
   9    5   27 1
  10    7   32 1
  11    8    9 1
  12    8   20 1
  13    8   38 1
  14    9   10 1
  15    9   39 1
  16    9   40 1
  17   10   11 2
  18   10   12 1
  19   12   13 ar
  20   12   17 ar
  21   13   14 ar
  22   13   41 1
  23   14   15 ar
  24   14   42 1
  25   15   16 ar
  26   15   18 1
  27   16   17 ar
  28   16   43 1
  29   17   44 1
  30   18   19 1
  31   18   45 1
  32   18   46 1
  33   19   47 1
  34   19   48 1
  35   19   49 1
  36   20   21 ar
  37   20   25 ar
  38   21   22 ar
  39   21   50 1
  40   22   23 ar
  41   22   51 1
  42   23   24 ar
  43   23   26 1
  44   24   25 ar
  45   24   52 1
  46   25   53 1
  47   27   28 1
  48   27   54 1
  49   27   55 1
  50   28   29 1
  51   29   30 2
  52   29   31 1
  53   31   56 1
  54   31   57 1
  55   31   58 1
  56   32   33 1
  57   32   59 1
  58   32   60 1
  59   33   34 1
  60   34   35 2
  61   34   36 1
  62   36   61 1
  63   36   62 1
  64   36   63 1

#	End of record

