#	Name: ASD03090903
#	Creating user name:	WinNT
#	Creation time:	15. 06. 2019 20:29

#	Modifying user name:	WinNT
#	Modification time:	15. 06. 2019 20:29

#	Program:	/corina/corina34_cracker 3.40 0067  02.08.2006

@<TRIPOS>MOLECULE
ASD03090903
  49   52    0    0    0
SMALL
NO_CHARGES


@<TRIPOS>ATOM
   1 N1            -0.0169     1.2496     0.0903 N.am    
   2 C2             0.0064    -0.0976     0.0615 C.2     
   3 O3            -1.0378    -0.7258     0.0833 O.2     
   4 N4             1.1742    -0.7445     0.0090 N.2     
   5 S5            -0.1572    -3.1382     0.0031 S.3     
   6 C6             1.1973    -2.0750    -0.0194 C.2     
   7 N7             2.2930    -2.8738    -0.0727 N.pl3   
   8 C8             2.0752    -4.2177    -0.0938 C.2     
   9 C9             0.8118    -4.6204    -0.0603 C.2     
  10 O10            7.4024    -0.7444    -0.2101 O.3     
  11 C11            8.4747    -1.5792     0.2404 C.3     
  12 C12            8.3044    -2.9652    -0.3963 C.3     
  13 O13            7.0394    -3.4947     0.0149 O.3     
  14 C14            5.9705    -2.6555    -0.0620 C.ar    
  15 C15            6.1513    -1.2813    -0.1724 C.ar    
  16 C16            4.6893    -3.1830    -0.0299 C.ar    
  17 C17            3.5891    -2.3400    -0.1049 C.ar    
  18 C18            3.7727    -0.9684    -0.2123 C.ar    
  19 C19            5.0497    -0.4421    -0.2459 C.ar    
  20 F20            8.3378    -2.8514    -1.7903 F       
  21 F21            9.3323    -3.8114     0.0335 F       
  22 F22            9.6990    -1.0272    -0.1515 F       
  23 F23            8.4316    -1.6917     1.6342 F       
  24 C24            0.3067    -6.0401    -0.0739 C.3     
  25 C25            1.2382     2.0047     0.0641 C.3     
  26 C26           -1.2976     1.9591     0.1418 C.3     
  27 C27           -1.7549     2.0671     1.5736 C.ar    
  28 C28           -2.9977     2.6013     1.8648 C.ar    
  29 C29           -3.4169     2.6997     3.1793 C.ar    
  30 C30           -2.5942     2.2642     4.2013 C.ar    
  31 C31           -1.3528     1.7310     3.9099 C.ar    
  32 C32           -0.9355     1.6272     2.5958 C.ar    
  33 Cl33          -4.0300     3.1485     0.5808 Cl      
  34 H34            2.8925    -4.9225    -0.1358 H       
  35 H35            4.5469    -4.2503     0.0543 H       
  36 H36            2.9168    -0.3122    -0.2697 H       
  37 H37            5.1903     0.6255    -0.3292 H       
  38 H38           -0.7827    -6.0385    -0.0385 H       
  39 H39            0.6398    -6.5355    -0.9859 H       
  40 H40            0.6976    -6.5732     0.7927 H       
  41 H41            1.5621     2.1354    -0.9685 H       
  42 H42            1.0844     2.9814     0.5230 H       
  43 H43            2.0021     1.4592     0.6181 H       
  44 H44           -1.1767     2.9581    -0.2773 H       
  45 H45           -2.0407     1.4100    -0.4365 H       
  46 H46           -4.3867     3.1169     3.4072 H       
  47 H47           -2.9215     2.3409     5.2277 H       
  48 H48           -0.7101     1.3916     4.7087 H       
  49 H49            0.0328     1.2065     2.3685 H       
@<TRIPOS>BOND
   1    1    2 am
   2    1   25 1
   3    1   26 1
   4    2    3 2
   5    2    4 1
   6    4    6 2
   7    5    6 1
   8    5    9 1
   9    6    7 1
  10    7    8 1
  11    7   17 1
  12    8    9 2
  13    8   34 1
  14    9   24 1
  15   10   11 1
  16   10   15 1
  17   11   12 1
  18   11   22 1
  19   11   23 1
  20   12   13 1
  21   12   20 1
  22   12   21 1
  23   13   14 1
  24   14   15 ar
  25   14   16 ar
  26   15   19 ar
  27   16   17 ar
  28   16   35 1
  29   17   18 ar
  30   18   19 ar
  31   18   36 1
  32   19   37 1
  33   24   38 1
  34   24   39 1
  35   24   40 1
  36   25   41 1
  37   25   42 1
  38   25   43 1
  39   26   27 1
  40   26   44 1
  41   26   45 1
  42   27   28 ar
  43   27   32 ar
  44   28   29 ar
  45   28   33 1
  46   29   30 ar
  47   29   46 1
  48   30   31 ar
  49   30   47 1
  50   31   32 ar
  51   31   48 1
  52   32   49 1

#	End of record

