#	Name: ASD08070119
#	Creating user name:	WinNT
#	Creation time:	15. 06. 2019 21:14

#	Modifying user name:	WinNT
#	Modification time:	15. 06. 2019 21:14

#	Program:	/corina/corina34_cracker 3.40 0067  02.08.2006

@<TRIPOS>MOLECULE
ASD08070119
  42   43    0    0    0
SMALL
NO_CHARGES


@<TRIPOS>ATOM
   1 C1             1.0550    -0.4251    -0.8059 C.ar    
   2 C2             0.0017    -0.0035    -0.0052 C.ar    
   3 N3            -1.1994    -0.7217     0.0092 N.am    
   4 C4            -1.1827    -2.0649    -0.0999 C.2     
   5 O5            -0.1327    -2.6459    -0.2957 O.2     
   6 C6            -2.3116    -4.2242    -0.1106 C.3     
   7 N7            -2.3298    -2.7641     0.0080 N.am    
   8 C8            -3.7334    -4.7665     0.0489 C.3     
   9 C9            -3.7147    -6.2685    -0.0731 C.ar    
  10 C10            2.2392     0.2856    -0.8174 C.ar    
  11 C11            0.1428     1.1321     0.7816 C.ar    
  12 C12            1.3295     1.8384     0.7656 C.ar    
  13 C13            2.3765     1.4159    -0.0328 C.ar    
  14 C14           -4.2501    -7.0428     0.9390 C.ar    
  15 C15            3.6700     2.1890    -0.0479 C.3     
  16 C16            4.8129     1.2799     0.4085 C.3     
  17 C17            3.9501     2.6868    -1.4673 C.3     
  18 N18           -3.1926    -6.8286    -1.1466 N.ar    
  19 C19           -3.1545    -8.1384    -1.2964 C.ar    
  20 C20           -3.6660    -8.9763    -0.3240 C.ar    
  21 C21           -4.2279    -8.4235     0.8169 C.ar    
  22 H22            0.9499    -1.3104    -1.4155 H       
  23 H23           -2.0438    -0.2527     0.0976 H       
  24 H24           -1.9236    -4.5044    -1.0899 H       
  25 H25           -1.6733    -4.6439     0.6668 H       
  26 H26           -3.1674    -2.3006     0.1642 H       
  27 H27           -4.1214    -4.4863     1.0282 H       
  28 H28           -4.3717    -4.3468    -0.7286 H       
  29 H29            3.0589    -0.0421    -1.4397 H       
  30 H30           -0.6747     1.4627     1.4051 H       
  31 H31            1.4398     2.7218     1.3769 H       
  32 H32           -4.6800    -6.5780     1.8140 H       
  33 H33            3.5919     3.0412     0.6272 H       
  34 H34            4.8910     0.4277    -0.2666 H       
  35 H35            5.7485     1.8391     0.3976 H       
  36 H36            4.6133     0.9253     1.4197 H       
  37 H37            3.1360     3.3345    -1.7925 H       
  38 H38            4.8857     3.2460    -1.4782 H       
  39 H39            4.0283     1.8346    -2.1424 H       
  40 H40           -2.7188    -8.5609    -2.1898 H       
  41 H41           -3.6325   -10.0480    -0.4528 H       
  42 H42           -4.6351    -9.0538     1.5937 H       
@<TRIPOS>BOND
   1    1    2 ar
   2    1   10 ar
   3    1   22 1
   4    2   11 ar
   5    2    3 1
   6    3    4 am
   7    3   23 1
   8    4    5 2
   9    4    7 am
  10    6    8 1
  11    6    7 1
  12    6   24 1
  13    6   25 1
  14    7   26 1
  15    8    9 1
  16    8   27 1
  17    8   28 1
  18    9   14 ar
  19    9   18 ar
  20   10   13 ar
  21   10   29 1
  22   11   12 ar
  23   11   30 1
  24   12   13 ar
  25   12   31 1
  26   13   15 1
  27   14   21 ar
  28   14   32 1
  29   15   16 1
  30   15   17 1
  31   15   33 1
  32   16   34 1
  33   16   35 1
  34   16   36 1
  35   17   37 1
  36   17   38 1
  37   17   39 1
  38   18   19 ar
  39   19   20 ar
  40   19   40 1
  41   20   21 ar
  42   20   41 1
  43   21   42 1

#	End of record

