#	Name: ASD09740348
#	Creating user name:	WinNT
#	Creation time:	15. 06. 2019 21:23

#	Modifying user name:	WinNT
#	Modification time:	15. 06. 2019 21:23

#	Program:	/corina/corina34_cracker 3.40 0067  02.08.2006

@<TRIPOS>MOLECULE
ASD09740348
  64   67    0    0    0
SMALL
NO_CHARGES


@<TRIPOS>ATOM
   1 O1            -0.0177     1.0158    -0.8112 O.3     
   2 O2             0.0895     2.5331    -3.1044 O.3     
   3 N3             6.1169     0.0036     0.7868 N.2     
   4 O4             4.9476     0.1753     0.5147 O.3     
   5 C5             6.8813     0.5943    -0.0973 C.2     
   6 N6             6.0700     1.1858    -0.9998 N.2     
   7 C7             4.8411     0.9133    -0.6015 C.2     
   8 C8             3.5887     1.3387    -1.2586 C.ar    
   9 C9             8.3631     0.6108    -0.1054 C.ar    
  10 C10            9.0867    -0.5902     0.0027 C.ar    
  11 C11           10.4925    -0.5635    -0.0060 C.ar    
  12 C12           11.1537     0.6544    -0.1224 C.ar    
  13 C13           10.4346     1.8265    -0.2285 C.ar    
  14 C14            9.0500     1.8122    -0.2256 C.ar    
  15 C15            2.3543     0.9715    -0.7171 C.ar    
  16 C16            1.1855     1.3719    -1.3355 C.ar    
  17 C17            1.2397     2.1405    -2.4971 C.ar    
  18 C18            2.4656     2.5050    -3.0347 C.ar    
  19 C19            3.6358     2.1135    -2.4191 C.ar    
  20 C20            0.2179     3.3188    -4.2911 C.3     
  21 C21           -1.1729     3.6629    -4.8279 C.3     
  22 C22            0.0016     0.2273     0.3804 C.3     
  23 C23           -1.4338    -0.0725     0.8170 C.3     
  24 N24           10.9236    -1.8664     0.1136 N.pl3   
  25 C25            9.8476    -2.7059     0.1965 C.2     
  26 C26            8.7080    -1.9961     0.1354 C.2     
  27 C27            7.3058    -2.5451     0.1932 C.3     
  28 N28            6.7069    -2.5007    -1.1475 N.3     
  29 C29            5.3364    -3.0294    -1.1296 C.3     
  30 C30            4.7473    -2.9669    -2.5403 C.3     
  31 N31            3.3769    -3.4956    -2.5224 N.3     
  32 C32            2.4890    -2.6304    -1.7343 C.3     
  33 C33            2.8633    -3.6732    -3.8872 C.3     
  34 H34           12.2333     0.6824    -0.1294 H       
  35 H35           10.9580     2.7669    -0.3181 H       
  36 H36            8.5022     2.7391    -0.3095 H       
  37 H37            2.3138     0.3757     0.1828 H       
  38 H38            2.5035     3.1006    -3.9349 H       
  39 H39            4.5888     2.3986    -2.8396 H       
  40 H40            0.7565     4.2383    -4.0615 H       
  41 H41            0.7681     2.7536    -5.0433 H       
  42 H42           -1.7115     2.7435    -5.0574 H       
  43 H43           -1.7231     4.2282    -4.0756 H       
  44 H44           -1.0749     4.2623    -5.7330 H       
  45 H45            0.5260    -0.7088     0.1883 H       
  46 H46            0.5147     0.7756     1.1706 H       
  47 H47           -1.4191    -0.6739     1.7259 H       
  48 H48           -1.9582     0.8636     1.0091 H       
  49 H49           -1.9469    -0.6207     0.0268 H       
  50 H50           11.8520    -2.1466     0.1353 H       
  51 H51            9.9048    -3.7797     0.2961 H       
  52 H52            7.3336    -3.5765     0.5447 H       
  53 H53            6.7081    -1.9438     0.8782 H       
  54 H54            6.7283    -1.5641    -1.5222 H       
  55 H55            5.3506    -4.0641    -0.7873 H       
  56 H56            4.7251    -2.4314    -0.4538 H       
  57 H57            4.7331    -1.9321    -2.8826 H       
  58 H58            5.3586    -3.5648    -3.2162 H       
  59 H59            2.4728    -1.6320    -2.1714 H       
  60 H60            1.4809    -3.0449    -1.7376 H       
  61 H61            2.8546    -2.5723    -0.7091 H       
  62 H62            3.5009    -4.3731    -4.4272 H       
  63 H63            1.8473    -4.0656    -3.8449 H       
  64 H64            2.8606    -2.7125    -4.4023 H       
@<TRIPOS>BOND
   1    1   22 1
   2    1   16 1
   3    2   20 1
   4    2   17 1
   5    3    4 1
   6    3    5 2
   7    4    7 1
   8    5    6 1
   9    5    9 1
  10    6    7 2
  11    7    8 1
  12    8   15 ar
  13    8   19 ar
  14    9   10 ar
  15    9   14 ar
  16   10   11 ar
  17   10   26 1
  18   11   12 ar
  19   11   24 1
  20   12   13 ar
  21   12   34 1
  22   13   14 ar
  23   13   35 1
  24   14   36 1
  25   15   16 ar
  26   15   37 1
  27   16   17 ar
  28   17   18 ar
  29   18   19 ar
  30   18   38 1
  31   19   39 1
  32   20   21 1
  33   20   40 1
  34   20   41 1
  35   21   42 1
  36   21   43 1
  37   21   44 1
  38   22   23 1
  39   22   45 1
  40   22   46 1
  41   23   47 1
  42   23   48 1
  43   23   49 1
  44   24   25 1
  45   24   50 1
  46   25   26 2
  47   25   51 1
  48   26   27 1
  49   27   28 1
  50   27   52 1
  51   27   53 1
  52   28   29 1
  53   28   54 1
  54   29   30 1
  55   29   55 1
  56   29   56 1
  57   30   31 1
  58   30   57 1
  59   30   58 1
  60   31   32 1
  61   31   33 1
  62   32   59 1
  63   32   60 1
  64   32   61 1
  65   33   62 1
  66   33   63 1
  67   33   64 1

#	End of record

