#	Name: ASD02030071
#	Creating user name:	WinNT
#	Creation time:	15. 06. 2019 20:14

#	Modifying user name:	WinNT
#	Modification time:	15. 06. 2019 20:14

#	Program:	/corina/corina34_cracker 3.40 0067  02.08.2006

@<TRIPOS>MOLECULE
ASD02030071
  42   44    0    0    0
SMALL
NO_CHARGES


@<TRIPOS>ATOM
   1 C1            -0.0158     1.3139     0.0093 C.ar    
   2 N2             0.0021    -0.0041     0.0020 N.ar    
   3 C3             1.1285    -0.6885    -0.0125 C.ar    
   4 C4             2.3503    -0.0438    -0.0203 C.ar    
   5 C5             2.3791     1.3545    -0.0130 C.ar    
   6 C6             1.1598     2.0394     0.0019 C.ar    
   7 C7             3.6645     2.0891    -0.0204 C.2     
   8 O8             3.6704     3.4358    -0.0133 O.3     
   9 O9             4.7133     1.4774    -0.0330 O.2     
  10 C10            4.9670     4.0893    -0.0212 C.3     
  11 C11            5.4096     4.3677    -1.4726 C.3     
  12 C12            6.1242     5.7397    -1.3952 C.3     
  13 C13            5.2613     6.5173    -0.3706 C.3     
  14 C14            4.8727     5.4560     0.6794 C.3     
  15 N15            5.8025     5.5053     1.8105 N.am    
  16 C16            5.5792     6.3585     2.8297 C.2     
  17 O17            4.6061     7.0872     2.8104 O.2     
  18 C18            6.5159     6.4081     3.9693 C.ar    
  19 C19            6.2862     7.2920     5.0269 C.ar    
  20 C20            7.1625     7.3353     6.0883 C.ar    
  21 C21            8.2743     6.5014     6.1085 C.ar    
  22 C22            8.5066     5.6211     5.0581 C.ar    
  23 C23            7.6317     5.5674     3.9961 C.ar    
  24 O24            9.1356     6.5471     7.1562 O.3     
  25 H25           -0.9625     1.8337     0.0166 H       
  26 H26            1.0958    -1.7680    -0.0179 H       
  27 H27            3.2693    -0.6110    -0.0314 H       
  28 H28            1.1376     3.1192     0.0076 H       
  29 H29            5.7041     3.4620     0.4800 H       
  30 H30            6.0997     3.5969    -1.8155 H       
  31 H31            4.5430     4.4256    -2.1312 H       
  32 H32            7.1450     5.6236    -1.0313 H       
  33 H33            6.1130     6.2364    -2.3655 H       
  34 H34            5.8432     7.3152     0.0907 H       
  35 H35            4.3707     6.9223    -0.8513 H       
  36 H36            3.8536     5.6287     1.0254 H       
  37 H37            6.5787     4.9239     1.8259 H       
  38 H38            5.4227     7.9405     5.0118 H       
  39 H39            6.9858     8.0184     6.9059 H       
  40 H40            9.3718     4.9750     5.0773 H       
  41 H41            7.8127     4.8829     3.1805 H       
  42 H42            8.9126     5.9403     7.8754 H       
@<TRIPOS>BOND
   1    1    2 ar
   2    1    6 ar
   3    1   25 1
   4    2    3 ar
   5    3    4 ar
   6    3   26 1
   7    4    5 ar
   8    4   27 1
   9    5    6 ar
  10    5    7 1
  11    6   28 1
  12    7    8 1
  13    7    9 2
  14    8   10 1
  15   10   11 1
  16   10   14 1
  17   10   29 1
  18   11   12 1
  19   11   30 1
  20   11   31 1
  21   12   13 1
  22   12   32 1
  23   12   33 1
  24   13   14 1
  25   13   34 1
  26   13   35 1
  27   14   15 1
  28   14   36 1
  29   15   16 am
  30   15   37 1
  31   16   17 2
  32   16   18 1
  33   18   19 ar
  34   18   23 ar
  35   19   20 ar
  36   19   38 1
  37   20   21 ar
  38   20   39 1
  39   21   22 ar
  40   21   24 1
  41   22   23 ar
  42   22   40 1
  43   23   41 1
  44   24   42 1

#	End of record

