#	Name: ASD02198038
#	Creating user name:	WinNT
#	Creation time:	15. 06. 2019 20:18

#	Modifying user name:	WinNT
#	Modification time:	15. 06. 2019 20:18

#	Program:	/corina/corina34_cracker 3.40 0067  02.08.2006

@<TRIPOS>MOLECULE
ASD02198038
  40   42    0    0    0
SMALL
NO_CHARGES


@<TRIPOS>ATOM
   1 C1             0.5519     1.3818    -0.6365 C.2     
   2 C2             0.4618     0.0083    -0.5477 C.2     
   3 C3            -0.7729    -0.6797    -0.3179 C.1     
   4 S4             2.1618     1.8690    -0.9149 S.3     
   5 C5             2.7340     0.2085    -0.9141 C.2     
   6 C6             1.6799    -0.6492    -0.7026 C.2     
   7 C7             4.0721    -0.1858    -1.1020 C.2     
   8 O8             4.3877    -1.3558    -0.9668 O.2     
   9 C9             5.0960     0.8198    -1.4639 C.ar    
  10 N10            1.8160    -2.0275    -0.6485 N.pl3   
  11 N11           -0.5147     2.2425    -0.5217 N.pl3   
  12 N12           -1.7524    -1.2255    -0.1356 N.1     
  13 C13           -0.2993     3.6252    -0.5028 C.ar    
  14 C14           -1.2132     4.4791    -1.1066 C.ar    
  15 C15           -0.9997     5.8432    -1.0875 C.ar    
  16 C16            0.1270     6.3608    -0.4654 C.ar    
  17 C17            1.0404     5.5086     0.1379 C.ar    
  18 C18            0.8256     4.1446     0.1247 C.ar    
  19 C19            4.7413     1.9430    -2.2121 C.ar    
  20 C20            5.7004     2.8767    -2.5461 C.ar    
  21 C21            7.0117     2.7012    -2.1409 C.ar    
  22 C22            7.3698     1.5897    -1.3988 C.ar    
  23 C23            6.4190     0.6516    -1.0534 C.ar    
  24 O24            0.3366     7.7042    -0.4475 O.3     
  25 C25            1.5174     8.1679     0.2105 C.3     
  26 H26            2.6895    -2.4334    -0.7628 H       
  27 H27            1.0377    -2.5860    -0.4964 H       
  28 H28           -1.4163     1.8911    -0.4539 H       
  29 H29           -2.0903     4.0764    -1.5912 H       
  30 H30           -1.7101     6.5074    -1.5572 H       
  31 H31            1.9175     5.9123     0.6216 H       
  32 H32            1.5368     3.4813     0.5945 H       
  33 H33            3.7181     2.0810    -2.5293 H       
  34 H34            5.4273     3.7463    -3.1255 H       
  35 H35            7.7589     3.4348    -2.4052 H       
  36 H36            8.3951     1.4583    -1.0858 H       
  37 H37            6.6998    -0.2156    -0.4741 H       
  38 H38            1.4949     7.8609     1.2562 H       
  39 H39            2.3951     7.7410    -0.2747 H       
  40 H40            1.5627     9.2553     0.1519 H       
@<TRIPOS>BOND
   1    1    2 2
   2    1    4 1
   3    1   11 1
   4    2    3 1
   5    2    6 1
   6    3   12 3
   7    4    5 1
   8    5    6 2
   9    5    7 1
  10    6   10 1
  11    7    8 2
  12    7    9 1
  13    9   19 ar
  14    9   23 ar
  15   10   26 1
  16   10   27 1
  17   11   13 1
  18   11   28 1
  19   13   14 ar
  20   13   18 ar
  21   14   15 ar
  22   14   29 1
  23   15   16 ar
  24   15   30 1
  25   16   17 ar
  26   16   24 1
  27   17   18 ar
  28   17   31 1
  29   18   32 1
  30   19   20 ar
  31   19   33 1
  32   20   21 ar
  33   20   34 1
  34   21   22 ar
  35   21   35 1
  36   22   23 ar
  37   22   36 1
  38   23   37 1
  39   24   25 1
  40   25   38 1
  41   25   39 1
  42   25   40 1

#	End of record

