#	Name: ASD09800024
#	Creating user name:	WinNT
#	Creation time:	15. 06. 2019 21:24

#	Modifying user name:	WinNT
#	Modification time:	15. 06. 2019 21:24

#	Program:	/corina/corina34_cracker 3.40 0067  02.08.2006

@<TRIPOS>MOLECULE
ASD09800024
  79   84    0    0    0
SMALL
NO_CHARGES


@<TRIPOS>ATOM
   1 C1             0.2920     1.3640    -0.4423 C.ar    
   2 C2             0.4050     0.0195    -0.6273 C.ar    
   3 C3             1.4483     2.1491    -0.3070 C.ar    
   4 C4             2.7204     1.5305    -0.3649 C.ar    
   5 C5             2.8011     0.1358    -0.5572 C.ar    
   6 C6             1.6533    -0.5944    -0.6852 C.ar    
   7 C7             1.3668     3.5452    -0.1145 C.ar    
   8 C8             2.5263     4.2794     0.0134 C.ar    
   9 C9             3.7711     3.6592    -0.0453 C.ar    
  10 C10            3.8780     2.3145    -0.2305 C.ar    
  11 O11            4.0116    -0.4774    -0.6154 O.3     
  12 C12            4.5521    -0.9297     0.5424 C.ar    
  13 C13            5.7992    -1.5679     0.5255 C.ar    
  14 N14            3.9015    -0.7608     1.6807 N.ar    
  15 C15            6.3379    -2.0262     1.7294 C.ar    
  16 C16            5.6123    -1.8288     2.8927 C.ar    
  17 C17            4.3907    -1.1853     2.8302 C.ar    
  18 C18            6.5334    -1.7537    -0.7478 C.ar    
  19 N19            6.0183    -1.3165    -1.8952 N.ar    
  20 C20            7.7807    -2.3857    -0.7625 C.ar    
  21 C21            8.4286    -2.5361    -1.9747 C.ar    
  22 N22            7.8539    -2.0810    -3.0774 N.ar    
  23 C23            6.6731    -1.4813    -3.0338 C.ar    
  24 N24            6.1073    -1.0201    -4.2098 N.pl3   
  25 C25            6.8131    -1.1978    -5.4812 C.3     
  26 C26            5.9767    -0.6037    -6.6163 C.3     
  27 N27            6.6844    -0.7819    -7.8911 N.3     
  28 C28            5.9092    -0.2221    -9.0063 C.3     
  29 C29            6.2001     1.2753    -9.1299 C.3     
  30 N30            5.4415     1.8311   -10.2577 N.3     
  31 C31            5.8402     1.2061   -11.5253 C.3     
  32 C32            5.5387    -0.2934   -11.4733 C.3     
  33 C33            6.3068    -0.9234   -10.3081 C.3     
  34 N34            0.1251     4.1756    -0.0548 N.am    
  35 C35            0.8864     6.7950     0.3110 C.ar    
  36 C36            0.5648     6.9724     1.6447 C.ar    
  37 C37            1.3114     7.8360     2.4269 C.ar    
  38 C38            2.3776     8.5205     1.8753 C.ar    
  39 C39            2.6986     8.3427     0.5423 C.ar    
  40 C40            1.9565     7.4763    -0.2382 C.ar    
  41 Cl41          -0.7751     6.1126     2.3367 Cl      
  42 S42           -0.0632     5.6952    -0.6856 S.o2    
  43 O43            0.5549     5.6780    -1.9650 O.2     
  44 O44           -1.4254     6.0468    -0.4851 O.2     
  45 C45            1.7397    -2.0848    -0.8907 C.3     
  46 H46           -0.6837     1.8255    -0.4041 H       
  47 H47           -0.4875    -0.5798    -0.7305 H       
  48 H48            2.4684     5.3478     0.1604 H       
  49 H49            4.6665     4.2543     0.0570 H       
  50 H50            4.8525     1.8508    -0.2737 H       
  51 H51            7.2967    -2.5228     1.7529 H       
  52 H52            5.9996    -2.1712     3.8409 H       
  53 H53            3.8248    -1.0313     3.7371 H       
  54 H54            8.2276    -2.7476     0.1517 H       
  55 H55            9.3934    -3.0193    -2.0216 H       
  56 H56            5.2435    -0.5793    -4.1922 H       
  57 H57            7.7767    -0.6903    -5.4359 H       
  58 H58            6.9706    -2.2608    -5.6639 H       
  59 H59            5.0131    -1.1112    -6.6616 H       
  60 H60            5.8192     0.4593    -6.4336 H       
  61 H61            7.6072    -0.3756    -7.8523 H       
  62 H62            4.8455    -0.3722    -8.8216 H       
  63 H63            5.9048     1.7797    -8.2098 H       
  64 H64            7.2662     1.4254    -9.3001 H       
  65 H65            4.4483     1.7391   -10.1059 H       
  66 H66            5.2836     1.6603   -12.3451 H       
  67 H67            6.9080     1.3565   -11.6843 H       
  68 H68            4.4690    -0.4446   -11.3281 H       
  69 H69            5.8491    -0.7596   -12.4083 H       
  70 H70            7.3780    -0.8064   -10.4724 H       
  71 H71            6.0613    -1.9832   -10.2406 H       
  72 H72           -0.6287     3.7243     0.3562 H       
  73 H73            1.0605     7.9752     3.4681 H       
  74 H74            2.9601     9.1948     2.4856 H       
  75 H75            3.5317     8.8782     0.1116 H       
  76 H76            2.2078     7.3376    -1.2794 H       
  77 H77            1.7372    -2.5859     0.0773 H       
  78 H78            0.8839    -2.4211    -1.4761 H       
  79 H79            2.6604    -2.3255    -1.4221 H       
@<TRIPOS>BOND
   1    1    2 ar
   2    1    3 ar
   3    1   46 1
   4    2    6 ar
   5    2   47 1
   6    3    4 ar
   7    3    7 ar
   8    4    5 ar
   9    4   10 ar
  10    5    6 ar
  11    5   11 1
  12    6   45 1
  13    7    8 ar
  14    7   34 1
  15    8    9 ar
  16    8   48 1
  17    9   10 ar
  18    9   49 1
  19   10   50 1
  20   11   12 1
  21   12   13 ar
  22   12   14 ar
  23   13   15 ar
  24   13   18 1
  25   14   17 ar
  26   15   16 ar
  27   15   51 1
  28   16   17 ar
  29   16   52 1
  30   17   53 1
  31   18   19 ar
  32   18   20 ar
  33   19   23 ar
  34   20   21 ar
  35   20   54 1
  36   21   22 ar
  37   21   55 1
  38   22   23 ar
  39   23   24 1
  40   24   25 1
  41   24   56 1
  42   25   26 1
  43   25   57 1
  44   25   58 1
  45   26   27 1
  46   26   59 1
  47   26   60 1
  48   27   28 1
  49   27   61 1
  50   28   29 1
  51   28   33 1
  52   28   62 1
  53   29   30 1
  54   29   63 1
  55   29   64 1
  56   30   31 1
  57   30   65 1
  58   31   32 1
  59   31   66 1
  60   31   67 1
  61   32   33 1
  62   32   68 1
  63   32   69 1
  64   33   70 1
  65   33   71 1
  66   34   42 am
  67   34   72 1
  68   35   36 ar
  69   35   42 1
  70   35   40 ar
  71   36   37 ar
  72   36   41 1
  73   37   38 ar
  74   37   73 1
  75   38   39 ar
  76   38   74 1
  77   39   40 ar
  78   39   75 1
  79   40   76 1
  80   42   43 2
  81   42   44 2
  82   45   77 1
  83   45   78 1
  84   45   79 1

#	End of record

