#	Name: ASD01900007
#	Creating user name:	WinNT
#	Creation time:	15. 06. 2019 19:51

#	Modifying user name:	WinNT
#	Modification time:	15. 06. 2019 19:51

#	Program:	/corina/corina34_cracker 3.40 0067  02.08.2006

@<TRIPOS>MOLECULE
ASD01900007
  48   51    0    0    0
SMALL
NO_CHARGES


@<TRIPOS>ATOM
   1 C1             0.2219     1.2193    -0.3854 C.ar    
   2 C2             0.1903    -0.1578    -0.2343 C.ar    
   3 C3             1.3564    -0.8679    -0.0196 C.ar    
   4 C4             2.5653    -0.1968     0.0448 C.ar    
   5 C5             2.5998     1.2019    -0.0947 C.ar    
   6 C6             1.4178     1.9042    -0.3173 C.ar    
   7 N7             3.7676    -0.8698     0.2327 N.pl3   
   8 C8             4.8682    -0.1735     0.9088 C.3     
   9 N9             4.9839     1.1974     0.4112 N.am    
  10 C10            3.8984     1.8898     0.0123 C.2     
  11 O11            3.9901     3.0721    -0.2573 O.2     
  12 C12            4.6000    -0.1447     2.4148 C.3     
  13 C13            4.3718    -1.5709     2.9195 C.3     
  14 C14            5.7860     0.4557     3.1248 C.ar    
  15 C15            6.2441     1.8007     0.3484 C.ar    
  16 C16            7.2359     1.2583    -0.4586 C.ar    
  17 C17            8.4792     1.8565    -0.5184 C.ar    
  18 C18            8.7373     2.9943     0.2240 C.ar    
  19 C19            7.7521     3.5365     1.0288 C.ar    
  20 C20            6.5047     2.9468     1.0884 C.ar    
  21 C21            5.6406     1.6273     3.8439 C.ar    
  22 C22            6.7284     2.1780     4.4952 C.ar    
  23 C23            7.9616     1.5569     4.4277 C.ar    
  24 C24            8.1067     0.3848     3.7094 C.ar    
  25 C25            7.0179    -0.1683     3.0617 C.ar    
  26 C26           10.0952     3.6443     0.1563 C.3     
  27 H27           -0.6960     1.7601    -0.5623 H       
  28 H28           -0.7535    -0.6805    -0.2843 H       
  29 H29            1.3246    -1.9411     0.0976 H       
  30 H30            1.4371     2.9776    -0.4353 H       
  31 H31            3.8765    -1.7825    -0.0771 H       
  32 H32            5.8009    -0.7053     0.7211 H       
  33 H33            3.7138     0.4576     2.6146 H       
  34 H34            3.5140    -2.0052     2.4060 H       
  35 H35            5.2580    -2.1732     2.7197 H       
  36 H36            4.1808    -1.5504     3.9925 H       
  37 H37            7.0351     0.3696    -1.0384 H       
  38 H38            9.2510     1.4350    -1.1454 H       
  39 H39            7.9569     4.4250     1.6077 H       
  40 H40            5.7357     3.3708     1.7171 H       
  41 H41            4.6772     2.1126     3.8966 H       
  42 H42            6.6150     3.0938     5.0563 H       
  43 H43            8.8116     1.9876     4.9360 H       
  44 H44            9.0702    -0.1003     3.6565 H       
  45 H45            7.1313    -1.0840     2.5006 H       
  46 H46           10.1041     4.3846    -0.6436 H       
  47 H47           10.3117     4.1331     1.1062 H       
  48 H48           10.8518     2.8853    -0.0426 H       
@<TRIPOS>BOND
   1    1    2 ar
   2    1    6 ar
   3    1   27 1
   4    2    3 ar
   5    2   28 1
   6    3    4 ar
   7    3   29 1
   8    4    5 ar
   9    4    7 1
  10    5    6 ar
  11    5   10 1
  12    6   30 1
  13    7    8 1
  14    7   31 1
  15    8    9 1
  16    8   12 1
  17    8   32 1
  18    9   10 am
  19    9   15 1
  20   10   11 2
  21   12   13 1
  22   12   14 1
  23   12   33 1
  24   13   34 1
  25   13   35 1
  26   13   36 1
  27   14   21 ar
  28   14   25 ar
  29   15   16 ar
  30   15   20 ar
  31   16   17 ar
  32   16   37 1
  33   17   18 ar
  34   17   38 1
  35   18   19 ar
  36   18   26 1
  37   19   20 ar
  38   19   39 1
  39   20   40 1
  40   21   22 ar
  41   21   41 1
  42   22   23 ar
  43   22   42 1
  44   23   24 ar
  45   23   43 1
  46   24   25 ar
  47   24   44 1
  48   25   45 1
  49   26   46 1
  50   26   47 1
  51   26   48 1

#	End of record

