#	Name: ASD01200089
#	Creating user name:	WinNT
#	Creation time:	15. 06. 2019 19:08

#	Modifying user name:	WinNT
#	Modification time:	15. 06. 2019 19:08

#	Program:	/corina/corina34_cracker 3.40 0067  02.08.2006

@<TRIPOS>MOLECULE
ASD01200089
  49   51    0    0    0
SMALL
NO_CHARGES


@<TRIPOS>ATOM
   1 C1            -0.5164     1.4617     1.4820 C.2     
   2 C2            -0.3552     0.1504     0.8191 C.ar    
   3 C3             0.8812    -0.2170     0.2861 C.ar    
   4 C4             1.0281    -1.4467    -0.3337 C.ar    
   5 C5            -0.0518    -2.3131    -0.4254 C.ar    
   6 C6            -1.2829    -1.9518     0.1026 C.ar    
   7 C7            -1.4371    -0.7258     0.7295 C.ar    
   8 O8             0.4287     2.2218     1.5635 O.2     
   9 N9            -1.7127     1.8170     1.9911 N.am    
  10 S10           -0.6230     4.2094     2.8042 S.3     
  11 C11           -1.8642     3.0491     2.6140 C.2     
  12 N12           -2.9674     3.4870     3.1354 N.2     
  13 C13           -2.9327     4.6849     3.6884 C.2     
  14 C14           -1.7436     5.2880     3.6317 C.2     
  15 C15           -4.1384     5.3204     4.3314 C.3     
  16 O16           -2.3376    -2.8036     0.0094 O.3     
  17 C17           -3.1554    -2.6907    -1.0699 C.ar    
  18 C18           -4.3079    -3.4593    -1.1522 C.ar    
  19 C19           -5.1377    -3.3422    -2.2501 C.ar    
  20 C20           -4.8205    -2.4604    -3.2671 C.ar    
  21 C21           -3.6729    -1.6936    -3.1877 C.ar    
  22 C22           -2.8425    -1.8027    -2.0889 C.ar    
  23 S23           -4.7121    -4.5839     0.1426 S.o2    
  24 O24           -4.6276    -3.8012     1.3257 O.2     
  25 O25           -5.9440    -5.1618    -0.2670 O.2     
  26 C26           -3.3843    -5.8191     0.1003 C.3     
  27 O27            2.2316    -1.8052    -0.8534 O.3     
  28 C28            2.3123    -3.0877    -1.4786 C.3     
  29 C29            3.7332    -3.3128    -1.9992 C.3     
  30 H30            1.7223     0.4568     0.3567 H       
  31 H31            0.0662    -3.2713    -0.9094 H       
  32 H32           -2.3945    -0.4472     1.1445 H       
  33 H33           -2.4679     1.2121     1.9225 H       
  34 H34           -1.5090     6.2660     4.0250 H       
  35 H35           -4.1716     5.0508     5.3870 H       
  36 H36           -4.0726     6.4042     4.2351 H       
  37 H37           -5.0429     4.9660     3.8372 H       
  38 H38           -6.0348    -3.9401    -2.3146 H       
  39 H39           -5.4703    -2.3709    -4.1251 H       
  40 H40           -3.4275    -1.0057    -3.9833 H       
  41 H41           -1.9484    -1.2002    -2.0252 H       
  42 H42           -2.4262    -5.3285     0.2717 H       
  43 H43           -3.5556    -6.5635     0.8779 H       
  44 H44           -3.3733    -6.3074    -0.8741 H       
  45 H45            2.0643    -3.8620    -0.7527 H       
  46 H46            1.6094    -3.1311    -2.3106 H       
  47 H47            4.4361    -3.2694    -1.1672 H       
  48 H48            3.7947    -4.2910    -2.4761 H       
  49 H49            3.9812    -2.5384    -2.7251 H       
@<TRIPOS>BOND
   1    1    2 1
   2    1    8 2
   3    1    9 am
   4    2    3 ar
   5    2    7 ar
   6    3    4 ar
   7    3   30 1
   8    4    5 ar
   9    4   27 1
  10    5    6 ar
  11    5   31 1
  12    6    7 ar
  13    6   16 1
  14    7   32 1
  15    9   11 1
  16    9   33 1
  17   10   11 1
  18   10   14 1
  19   11   12 2
  20   12   13 1
  21   13   14 2
  22   13   15 1
  23   14   34 1
  24   15   35 1
  25   15   36 1
  26   15   37 1
  27   16   17 1
  28   17   18 ar
  29   17   22 ar
  30   18   19 ar
  31   18   23 1
  32   19   20 ar
  33   19   38 1
  34   20   21 ar
  35   20   39 1
  36   21   22 ar
  37   21   40 1
  38   22   41 1
  39   23   24 2
  40   23   25 2
  41   23   26 1
  42   26   42 1
  43   26   43 1
  44   26   44 1
  45   27   28 1
  46   28   29 1
  47   28   45 1
  48   28   46 1
  49   29   47 1
  50   29   48 1
  51   29   49 1

#	End of record

