#	Name: ASD01881221
#	Creating user name:	WinNT
#	Creation time:	15. 06. 2019 19:42

#	Modifying user name:	WinNT
#	Modification time:	15. 06. 2019 19:42

#	Program:	/corina/corina34_cracker 3.40 0067  02.08.2006

@<TRIPOS>MOLECULE
ASD01881221
  42   44    0    0    0
SMALL
NO_CHARGES


@<TRIPOS>ATOM
   1 N1            -0.0156     1.3137     0.0069 N.ar    
   2 C2             0.0019    -0.0037     0.0069 C.ar    
   3 N3             1.1310    -0.6835    -0.0050 N.ar    
   4 C4             2.3009    -0.0553    -0.0176 C.ar    
   5 C5             2.3189     1.3387    -0.0180 C.ar    
   6 C6             1.1115     2.0107    -0.0052 C.ar    
   7 C7             3.6229     2.0941    -0.0315 C.3     
   8 O8             4.0759     2.2383    -1.3791 O.3     
   9 C9             5.2454     2.9002    -1.5684 C.ar    
  10 C10            5.7439     3.0761    -2.8561 C.ar    
  11 C11            6.9264     3.7459    -3.0474 C.ar    
  12 C12            7.6368     4.2548    -1.9547 C.ar    
  13 C13            7.1318     4.0756    -0.6624 C.ar    
  14 C14            5.9405     3.4063    -0.4775 C.ar    
  15 C15            7.7247     4.1016    -4.2768 C.3     
  16 N16            8.9063     4.8300    -3.8011 N.am    
  17 C17            8.8511     4.9159    -2.4609 C.2     
  18 O18            9.6854     5.4622    -1.7653 O.2     
  19 Cl19           8.0002     4.6998     0.7050 Cl      
  20 C20            1.0768     3.5173    -0.0055 C.3     
  21 F21            1.8153     4.0005    -1.0910 F       
  22 F22           -0.2483     3.9532    -0.1119 F       
  23 F23            1.6312     3.9967     1.1861 F       
  24 C24            9.6186     6.8077    -5.0512 C.3     
  25 C25            9.9708     5.3746    -4.6476 C.3     
  26 O26            3.4593    -0.7585    -0.0294 O.3     
  27 C27            3.3533    -2.1835    -0.0276 C.3     
  28 H28           -0.9347    -0.5414     0.0174 H       
  29 H29            3.4763     3.0799     0.4100 H       
  30 H30            4.3670     1.5447     0.5452 H       
  31 H31            5.2007     2.6855    -3.7039 H       
  32 H32            5.5504     3.2681     0.5201 H       
  33 H33            8.0289     3.1957    -4.8012 H       
  34 H34            7.1336     4.7366    -4.9367 H       
  35 H35           10.4106     7.2129    -5.6811 H       
  36 H36            8.6788     6.8092    -5.6033 H       
  37 H37            9.5155     7.4222    -4.1568 H       
  38 H38           10.9107     5.3731    -4.0955 H       
  39 H39           10.0739     4.7601    -5.5420 H       
  40 H40            2.8233    -2.5073     0.8682 H       
  41 H41            2.8046    -2.5081    -0.9117 H       
  42 H42            4.3511    -2.6221    -0.0378 H       
@<TRIPOS>BOND
   1    1    2 ar
   2    1    6 ar
   3    2    3 ar
   4    2   28 1
   5    3    4 ar
   6    4    5 ar
   7    4   26 1
   8    5    6 ar
   9    5    7 1
  10    6   20 1
  11    7    8 1
  12    7   29 1
  13    7   30 1
  14    8    9 1
  15    9   10 ar
  16    9   14 ar
  17   10   11 ar
  18   10   31 1
  19   11   12 ar
  20   11   15 1
  21   12   13 ar
  22   12   17 1
  23   13   14 ar
  24   13   19 1
  25   14   32 1
  26   15   16 1
  27   15   33 1
  28   15   34 1
  29   16   17 am
  30   16   25 1
  31   17   18 2
  32   20   21 1
  33   20   22 1
  34   20   23 1
  35   24   25 1
  36   24   35 1
  37   24   36 1
  38   24   37 1
  39   25   38 1
  40   25   39 1
  41   26   27 1
  42   27   40 1
  43   27   41 1
  44   27   42 1

#	End of record

