#	Name: ASD03092712
#	Creating user name:	WinNT
#	Creation time:	15. 06. 2019 20:33

#	Modifying user name:	WinNT
#	Modification time:	15. 06. 2019 20:33

#	Program:	/corina/corina34_cracker 3.40 0067  02.08.2006

@<TRIPOS>MOLECULE
ASD03092712
  57   60    0    0    0
SMALL
NO_CHARGES


@<TRIPOS>ATOM
   1 C1            -0.0187     1.5258     0.0104 C.3     
   2 C2             0.0021    -0.0041     0.0020 C.3     
   3 C3             1.3165     0.7789    -0.0063 C.3     
   4 C4            -0.4176     2.2092     1.2929 C.2     
   5 O5            -0.7068     1.5482     2.2678 O.2     
   6 N6            -0.4530     3.5550     1.3566 N.am    
   7 C7            -0.8408     4.2194     2.6034 C.3     
   8 C8             0.3833     4.3550     3.5112 C.3     
   9 O9             1.3361     5.2264     2.8990 O.3     
  10 C10            2.5237     5.4221     3.6693 C.3     
  11 C11           -0.8027     6.3721     1.3205 C.ar    
  12 C12           -1.3904     5.5879     2.2934 C.ar    
  13 C13           -2.4930     6.0736     2.9823 C.ar    
  14 C14           -2.9658     7.3355     2.6660 C.ar    
  15 C15           -2.3249     8.0686     1.6759 C.ar    
  16 N16           -1.2760     7.5715     1.0414 N.ar    
  17 O17           -2.7786     9.3067     1.3565 O.3     
  18 C18           -2.2682    11.7472    -1.4522 C.3     
  19 C19           -3.0442    10.9409    -0.4076 C.3     
  20 C20           -2.0765    10.0101     0.3297 C.3     
  21 C21           -0.9572    10.8477     0.9558 C.3     
  22 C22           -0.2618    11.6577    -0.1415 C.3     
  23 O23           -1.2233    12.4785    -0.8077 O.3     
  24 C24           -0.4023    -0.6984    -1.2729 C.ar    
  25 C25           -1.4808    -1.5632    -1.2768 C.ar    
  26 C26           -1.8517    -2.2002    -2.4462 C.ar    
  27 C27           -1.1445    -1.9720    -3.6118 C.ar    
  28 C28           -0.0666    -1.1066    -3.6081 C.ar    
  29 C29            0.3016    -0.4663    -2.4397 C.ar    
  30 H30           -0.3248     2.0300    -0.9061 H       
  31 H31           -0.2728    -0.5162     0.9241 H       
  32 H32            1.8888     0.7918    -0.9339 H       
  33 H33            1.9064     0.7818     0.9103 H       
  34 H34           -0.2217     4.0837     0.5769 H       
  35 H35           -1.6040     3.6273     3.1085 H       
  36 H36            0.0785     4.7679     4.4728 H       
  37 H37            0.8333     3.3739     3.6632 H       
  38 H38            3.0181     4.4632     3.8246 H       
  39 H39            3.1955     6.0951     3.1366 H       
  40 H40            2.2634     5.8572     4.6341 H       
  41 H41            0.0583     6.0007     0.7845 H       
  42 H42           -2.9713     5.4803     3.7476 H       
  43 H43           -3.8219     7.7443     3.1821 H       
  44 H44           -1.8366    11.0687    -2.1881 H       
  45 H45           -2.9442    12.4420    -1.9507 H       
  46 H46           -3.5098    11.6212     0.3055 H       
  47 H47           -3.8135    10.3483    -0.9027 H       
  48 H48           -1.6493     9.2963    -0.3746 H       
  49 H49           -1.3806    11.5261     1.6964 H       
  50 H50           -0.2339    10.1885     1.4357 H       
  51 H51            0.5077    12.2879     0.3042 H       
  52 H52            0.1961    10.9780    -0.8602 H       
  53 H53           -2.0333    -1.7415    -0.3661 H       
  54 H54           -2.6938    -2.8764    -2.4491 H       
  55 H55           -1.4339    -2.4702    -4.5253 H       
  56 H56            0.4861    -0.9286    -4.5187 H       
  57 H57            1.1415     0.2128    -2.4376 H       
@<TRIPOS>BOND
   1    1    2 1
   2    1    3 1
   3    1    4 1
   4    1   30 1
   5    2    3 1
   6    2   24 1
   7    2   31 1
   8    3   32 1
   9    3   33 1
  10    4    5 2
  11    4    6 am
  12    6    7 1
  13    6   34 1
  14    7    8 1
  15    7   12 1
  16    7   35 1
  17    8    9 1
  18    8   36 1
  19    8   37 1
  20    9   10 1
  21   10   38 1
  22   10   39 1
  23   10   40 1
  24   11   12 ar
  25   11   16 ar
  26   11   41 1
  27   12   13 ar
  28   13   14 ar
  29   13   42 1
  30   14   15 ar
  31   14   43 1
  32   15   16 ar
  33   15   17 1
  34   17   20 1
  35   18   19 1
  36   18   23 1
  37   18   44 1
  38   18   45 1
  39   19   20 1
  40   19   46 1
  41   19   47 1
  42   20   21 1
  43   20   48 1
  44   21   22 1
  45   21   49 1
  46   21   50 1
  47   22   23 1
  48   22   51 1
  49   22   52 1
  50   24   25 ar
  51   24   29 ar
  52   25   26 ar
  53   25   53 1
  54   26   27 ar
  55   26   54 1
  56   27   28 ar
  57   27   55 1
  58   28   29 ar
  59   28   56 1
  60   29   57 1

#	End of record

