#	Name: ASD04590431
#	Creating user name:	WinNT
#	Creation time:	15. 06. 2019 20:50

#	Modifying user name:	WinNT
#	Modification time:	15. 06. 2019 20:50

#	Program:	/corina/corina34_cracker 3.40 0067  02.08.2006

@<TRIPOS>MOLECULE
ASD04590431
  63   67    0    0    0
SMALL
NO_CHARGES


@<TRIPOS>ATOM
   1 C1            -0.0167     1.3832     0.0096 C.ar    
   2 C2             0.0021    -0.0041     0.0020 C.ar    
   3 C3             2.4020     0.0223    -0.0208 C.ar    
   4 C4             2.3769     1.4283    -0.0130 C.ar    
   5 C5             1.1624     2.0986     0.0022 C.ar    
   6 N6             3.7040    -0.3552    -0.0358 N.2     
   7 C7             4.4709     0.7083    -0.0376 C.2     
   8 N8             3.6969     1.8375    -0.0239 N.pl3   
   9 C9             5.9482     0.6906    -0.0519 C.2     
  10 C10            6.7657    -0.4631    -0.0662 C.2     
  11 C11            8.0579    -0.0539    -0.0763 C.2     
  12 N12            8.0646     1.3050    -0.0688 N.pl3   
  13 N13            6.7360     1.7480    -0.0593 N.2     
  14 N14            6.3188    -1.7944    -0.0690 N.am    
  15 C15            7.2108    -2.8046    -0.0833 C.2     
  16 O16            8.4027    -2.5633    -0.0938 O.2     
  17 C17            6.7413    -4.2032    -0.0862 C.ar    
  18 C18            1.1969    -0.6870    -0.0131 C.ar    
  19 C19            6.0899    -6.1871     1.1097 C.ar    
  20 C20            5.8597    -6.8325    -0.0917 C.ar    
  21 C21            6.0717    -6.1760    -1.2904 C.ar    
  22 C22            6.5111    -4.8655    -1.2969 C.ar    
  23 C23            6.5294    -4.8767     1.1217 C.ar    
  24 C24           -1.2962    -0.7693     0.0109 C.3     
  25 N25           -1.7318    -1.0105    -1.3712 N.3     
  26 C26           -2.9973    -1.7559    -1.4017 C.3     
  27 C27           -3.4178    -1.9874    -2.8545 C.3     
  28 F28            6.7171    -4.2258    -2.4689 F       
  29 F29            6.7541    -4.2482     2.2963 F       
  30 C30           -4.7358    -2.7638    -2.8863 C.3     
  31 N31           -5.1396    -2.9861    -4.2811 N.3     
  32 C32           -6.2670    -3.9263    -4.3598 C.3     
  33 C33           -4.0068    -3.4625    -5.0880 C.3     
  34 C34           -4.4555    -3.6235    -6.5429 C.3     
  35 O35           -5.5715    -4.5162    -6.5963 O.3     
  36 C36           -6.6931    -4.0827    -5.8220 C.3     
  37 H37           -0.9614     1.9066     0.0170 H       
  38 H38            1.1403     3.1784     0.0079 H       
  39 H39            4.0155     2.7537    -0.0221 H       
  40 H40            8.9276    -0.6941    -0.0879 H       
  41 H41            8.8529     1.8702    -0.0726 H       
  42 H42            5.3681    -1.9869    -0.0606 H       
  43 H43            1.2037    -1.7669    -0.0186 H       
  44 H44            5.9218    -6.7072     2.0412 H       
  45 H45            5.5167    -7.8566    -0.0938 H       
  46 H46            5.8898    -6.6875    -2.2240 H       
  47 H47           -1.1522    -1.7232     0.5182 H       
  48 H48           -2.0559    -0.1898     0.5354 H       
  49 H49           -1.8102    -0.1439    -1.8821 H       
  50 H50           -2.8651    -2.7167    -0.9042 H       
  51 H51           -3.7688    -1.1833    -0.8870 H       
  52 H52           -3.5500    -1.0266    -3.3520 H       
  53 H53           -2.6463    -2.5600    -3.3692 H       
  54 H54           -4.6036    -3.7246    -2.3888 H       
  55 H55           -5.5073    -2.1912    -2.3716 H       
  56 H56           -5.9615    -4.8949    -3.9641 H       
  57 H57           -7.1033    -3.5414    -3.7762 H       
  58 H58           -3.1931    -2.7390    -5.0360 H       
  59 H59           -3.6651    -4.4237    -4.7040 H       
  60 H60           -4.7466    -2.6525    -6.9436 H       
  61 H61           -3.6351    -4.0308    -7.1338 H       
  62 H62           -7.4910    -4.8220    -5.8915 H       
  63 H63           -7.0492    -3.1251    -6.2017 H       
@<TRIPOS>BOND
   1    1    2 ar
   2    1    5 ar
   3    1   37 1
   4    2   18 ar
   5    2   24 1
   6    3    4 ar
   7    3    6 1
   8    3   18 ar
   9    4    5 ar
  10    4    8 1
  11    5   38 1
  12    6    7 2
  13    7    8 1
  14    7    9 1
  15    8   39 1
  16    9   10 1
  17    9   13 2
  18   10   11 2
  19   10   14 1
  20   11   12 1
  21   11   40 1
  22   12   13 1
  23   12   41 1
  24   14   15 am
  25   14   42 1
  26   15   16 2
  27   15   17 1
  28   17   23 ar
  29   17   22 ar
  30   18   43 1
  31   19   20 ar
  32   19   23 ar
  33   19   44 1
  34   20   21 ar
  35   20   45 1
  36   21   22 ar
  37   21   46 1
  38   22   28 1
  39   23   29 1
  40   24   25 1
  41   24   47 1
  42   24   48 1
  43   25   26 1
  44   25   49 1
  45   26   27 1
  46   26   50 1
  47   26   51 1
  48   27   30 1
  49   27   52 1
  50   27   53 1
  51   30   31 1
  52   30   54 1
  53   30   55 1
  54   31   32 1
  55   31   33 1
  56   32   36 1
  57   32   56 1
  58   32   57 1
  59   33   34 1
  60   33   58 1
  61   33   59 1
  62   34   35 1
  63   34   60 1
  64   34   61 1
  65   35   36 1
  66   36   62 1
  67   36   63 1

#	End of record

