#	Name: ASD01884385
#	Creating user name:	WinNT
#	Creation time:	15. 06. 2019 19:48

#	Modifying user name:	WinNT
#	Modification time:	15. 06. 2019 19:48

#	Program:	/corina/corina34_cracker 3.40 0067  02.08.2006

@<TRIPOS>MOLECULE
ASD01884385
  63   65    0    0    0
SMALL
NO_CHARGES


@<TRIPOS>ATOM
   1 C1            -0.1220     1.9931     0.4581 C.2     
   2 C2            -0.3329     0.6167     0.4381 C.2     
   3 C3            -1.6225     0.1274     0.6502 C.2     
   4 C4            -2.6493     0.9864     0.8714 C.2     
   5 N5            -2.4517     2.3269     0.8922 N.am    
   6 C6            -1.2265     2.8514     0.6992 C.2     
   7 O7            -1.0683     4.0599     0.7215 O.2     
   8 C8            -3.5880     3.2195     1.1340 C.3     
   9 C9             1.1872     2.5328     0.2450 C.1     
  10 N10            2.2258     2.9609     0.0760 N.1     
  11 N11            1.3561    -0.7882     1.4765 N.3     
  12 C12            2.3126    -1.8869     1.2827 C.3     
  13 C13            2.9129    -2.2815     2.6342 C.3     
  14 N14            1.8341    -2.6813     3.5485 N.3     
  15 C15            0.8776    -1.5825     3.7423 C.3     
  16 C16            0.2773    -1.1880     2.3908 C.3     
  17 N17            2.3711    -3.1352     4.8212 N.3     
  18 C18           -3.7286     3.4705     2.6367 C.3     
  19 C19            0.8135    -0.3296     0.1907 C.3     
  20 C20           -4.9153     4.4026     2.8892 C.3     
  21 C21           -5.1331     4.5544     4.3960 C.3     
  22 C22           -4.6265     5.7739     2.2750 C.3     
  23 C23            1.3097    -3.6872     5.6736 C.3     
  24 C24            3.4470    -4.1148     4.6192 C.3     
  25 C25            0.7114    -4.9001     5.0088 C.ar    
  26 C26            1.2148    -6.1579     5.2836 C.ar    
  27 C27            0.6660    -7.2704     4.6738 C.ar    
  28 C28           -0.3866    -7.1253     3.7895 C.ar    
  29 C29           -0.8906    -5.8676     3.5154 C.ar    
  30 C30           -0.3446    -4.7555     4.1285 C.ar    
  31 H31           -1.8037    -0.9373     0.6380 H       
  32 H32           -3.6426     0.5945     1.0334 H       
  33 H33           -3.4213     4.1669     0.6214 H       
  34 H34           -4.4999     2.7573     0.7559 H       
  35 H35            1.7983    -2.7445     0.8490 H       
  36 H36            3.1083    -1.5624     0.6122 H       
  37 H37            3.6010    -3.1156     2.4969 H       
  38 H38            3.4503    -1.4318     3.0553 H       
  39 H39            0.0819    -1.9071     4.4128 H       
  40 H40            1.3919    -0.7250     4.1760 H       
  41 H41           -0.4108    -0.3539     2.5282 H       
  42 H42           -0.2601    -2.0376     1.9697 H       
  43 H43           -3.8952     2.5231     3.1493 H       
  44 H44           -2.8167     3.9327     3.0147 H       
  45 H45            0.4597    -1.1875    -0.3810 H       
  46 H46            1.5941     0.1841    -0.3705 H       
  47 H47           -5.8114     3.9817     2.4331 H       
  48 H48           -4.2370     4.9753     4.8520 H       
  49 H49           -5.9785     5.2184     4.5758 H       
  50 H50           -5.3388     3.5775     4.8335 H       
  51 H51           -5.4719     6.4379     2.4549 H       
  52 H52           -3.7304     6.1948     2.7310 H       
  53 H53           -4.4713     5.6658     1.2015 H       
  54 H54            1.7297    -3.9717     6.6384 H       
  55 H55            0.5350    -2.9350     5.8222 H       
  56 H56            4.2516    -3.6573     4.0436 H       
  57 H57            3.8308    -4.4377     5.5870 H       
  58 H58            3.0570    -4.9763     4.0773 H       
  59 H59            2.0371    -6.2713     5.9745 H       
  60 H60            1.0598    -8.2530     4.8880 H       
  61 H61           -0.8149    -7.9944     3.3125 H       
  62 H62           -1.7127    -5.7542     2.8242 H       
  63 H63           -0.7384    -3.7729     3.9144 H       
@<TRIPOS>BOND
   1    1    2 2
   2    1    9 1
   3    1    6 1
   4    2    3 1
   5    2   19 1
   6    3    4 2
   7    3   31 1
   8    4    5 1
   9    4   32 1
  10    5    6 am
  11    5    8 1
  12    6    7 2
  13    8   18 1
  14    8   33 1
  15    8   34 1
  16    9   10 3
  17   11   12 1
  18   11   16 1
  19   11   19 1
  20   12   13 1
  21   12   35 1
  22   12   36 1
  23   13   14 1
  24   13   37 1
  25   13   38 1
  26   14   15 1
  27   14   17 1
  28   15   16 1
  29   15   39 1
  30   15   40 1
  31   16   41 1
  32   16   42 1
  33   17   23 1
  34   17   24 1
  35   18   20 1
  36   18   43 1
  37   18   44 1
  38   19   45 1
  39   19   46 1
  40   20   21 1
  41   20   22 1
  42   20   47 1
  43   21   48 1
  44   21   49 1
  45   21   50 1
  46   22   51 1
  47   22   52 1
  48   22   53 1
  49   23   25 1
  50   23   54 1
  51   23   55 1
  52   24   56 1
  53   24   57 1
  54   24   58 1
  55   25   26 ar
  56   25   30 ar
  57   26   27 ar
  58   26   59 1
  59   27   28 ar
  60   27   60 1
  61   28   29 ar
  62   28   61 1
  63   29   30 ar
  64   29   62 1
  65   30   63 1

#	End of record

