#	Name: ASD01150790
#	Creating user name:	WinNT
#	Creation time:	15. 06. 2019 19:05

#	Modifying user name:	WinNT
#	Modification time:	15. 06. 2019 19:05

#	Program:	/corina/corina34_cracker 3.40 0067  02.08.2006

@<TRIPOS>MOLECULE
ASD01150790
  47   49    0    0    0
SMALL
NO_CHARGES


@<TRIPOS>ATOM
   1 N1            -0.0179     1.4659     0.0101 N.3     
   2 C2             0.0021    -0.0041     0.0020 C.3     
   3 C3             0.7497    -0.4921    -1.2417 C.3     
   4 O4             2.0659     0.0673    -1.2506 O.3     
   5 C5             2.0838     1.4973    -1.2437 C.3     
   6 C6             1.3496     2.0055    -0.0001 C.3     
   7 C7            -0.7765     1.9758     1.1601 C.3     
   8 C8             0.6633     5.2561     2.0254 C.ar    
   9 N9             0.4770     3.9478     1.9195 N.ar    
  10 C10           -0.5725     3.4644     1.2763 C.ar    
  11 C11           -1.4826     4.3436     0.7098 C.ar    
  12 C12           -1.2576     5.7051     0.8393 C.ar    
  13 N13           -0.1878     6.1229     1.4954 N.ar    
  14 S14            2.0715     5.8567     2.8976 S.3     
  15 C15            1.8127     7.6396     2.7227 C.3     
  16 C16            2.9297     8.3794     3.4125 C.2     
  17 C17            3.7702     9.1207     2.7044 C.2     
  18 C18            4.8659     9.8464     3.3809 C.ar    
  19 C19            5.7522    10.6275     2.6385 C.ar    
  20 C20            6.7729    11.3023     3.2760 C.ar    
  21 C21            6.9189    11.2054     4.6483 C.ar    
  22 C22            6.0437    10.4322     5.3902 C.ar    
  23 C23            5.0148     9.7578     4.7655 C.ar    
  24 C24           -2.2201     6.6974     0.2392 C.3     
  25 H25            0.5087    -0.3661     0.8967 H       
  26 H26           -1.0202    -0.3818    -0.0162 H       
  27 H27            0.8167    -1.5799    -1.2226 H       
  28 H28            0.2136    -0.1754    -2.1363 H       
  29 H29            3.1155     1.8483    -1.2262 H       
  30 H30            1.5864     1.8718    -2.1384 H       
  31 H31            1.3110     3.0946    -0.0198 H       
  32 H32            1.8778     1.6756     0.8946 H       
  33 H33           -1.8364     1.7643     1.0189 H       
  34 H34           -0.4270     1.4890     2.0706 H       
  35 H35           -2.3480     3.9755     0.1789 H       
  36 H36            1.8011     7.9030     1.6651 H       
  37 H37            0.8604     7.9146     3.1761 H       
  38 H38            3.0456     8.3057     4.4837 H       
  39 H39            3.6544     9.1945     1.6332 H       
  40 H40            5.6397    10.7034     1.5670 H       
  41 H41            7.4596    11.9073     2.7025 H       
  42 H42            7.7197    11.7353     5.1426 H       
  43 H43            6.1632    10.3603     6.4611 H       
  44 H44            4.3294     9.1584     5.3463 H       
  45 H45           -2.9914     6.9426     0.9693 H       
  46 H46           -1.6816     7.6034    -0.0386 H       
  47 H47           -2.6834     6.2639    -0.6471 H       
@<TRIPOS>BOND
   1    1    2 1
   2    1    6 1
   3    1    7 1
   4    2    3 1
   5    2   25 1
   6    2   26 1
   7    3    4 1
   8    3   27 1
   9    3   28 1
  10    4    5 1
  11    5    6 1
  12    5   29 1
  13    5   30 1
  14    6   31 1
  15    6   32 1
  16    7   10 1
  17    7   33 1
  18    7   34 1
  19    8    9 ar
  20    8   13 ar
  21    8   14 1
  22    9   10 ar
  23   10   11 ar
  24   11   12 ar
  25   11   35 1
  26   12   13 ar
  27   12   24 1
  28   14   15 1
  29   15   16 1
  30   15   36 1
  31   15   37 1
  32   16   17 2
  33   16   38 1
  34   17   18 1
  35   17   39 1
  36   18   19 ar
  37   18   23 ar
  38   19   20 ar
  39   19   40 1
  40   20   21 ar
  41   20   41 1
  42   21   22 ar
  43   21   42 1
  44   22   23 ar
  45   22   43 1
  46   23   44 1
  47   24   45 1
  48   24   46 1
  49   24   47 1

#	End of record

