#	Name: ASD01140204
#	Creating user name:	WinNT
#	Creation time:	15. 06. 2019 19:00

#	Modifying user name:	WinNT
#	Modification time:	15. 06. 2019 19:00

#	Program:	/corina/corina34_cracker 3.40 0067  02.08.2006

@<TRIPOS>MOLECULE
ASD01140204
 110  115    0    0    0
SMALL
NO_CHARGES


@<TRIPOS>ATOM
   1 C1            -4.1024     0.5823    -3.7439 C.3     
   2 C2            -4.4875    -0.8959    -3.8577 C.3     
   3 C3            -5.8632    -1.1044    -3.2172 C.3     
   4 C4            -5.8186    -0.6259    -1.7637 C.3     
   5 O5            -5.4242     0.7472    -1.7275 O.3     
   6 C6            -4.1258     0.9957    -2.2700 C.3     
   7 O7            -2.7892     0.7758    -4.2733 O.3     
   8 O8            -4.5397    -1.2716    -5.2354 O.3     
   9 O9            -6.8438    -0.3545    -3.9370 O.3     
  10 O10           -7.1137    -0.7653    -1.1761 O.3     
  11 C11           -7.1569    -0.4499     0.2233 C.3     
  12 C12           -7.4627     1.0256     0.3887 C.3     
  13 C13           -8.1679    -1.3690     0.9060 C.3     
  14 C14           -9.5882    -0.9141     0.5812 C.3     
  15 C15           -9.8350     0.5075     1.0529 C.3     
  16 C16           -8.5728     1.3200     1.3813 C.3     
  17 C17          -10.6236    -1.9141     1.0015 C.3     
  18 C18          -12.0149    -1.4161     1.2523 C.3     
  19 C19          -12.1965    -0.1483     2.0478 C.3     
  20 C20          -11.1070     0.8923     1.7908 C.3     
  21 C21          -10.9346     1.2740     0.2989 C.3     
  22 C22           -7.9629    -2.7865     0.3308 C.3     
  23 C23           -7.9042    -1.4333     2.4063 C.3     
  24 C24          -12.2870    -0.4179     3.5332 C.3     
  25 C25          -12.5775     0.9091     4.2730 C.3     
  26 C26          -11.3393     1.7743     4.1963 C.3     
  27 C27          -11.0493     2.1050     2.7295 C.3     
  28 C28          -13.4426    -1.3122     4.0034 C.3     
  29 C29          -13.5397    -0.9670     5.4899 C.2     
  30 C30          -13.0540     0.4662     5.6516 C.3     
  31 C31          -13.7401     1.6793     3.6199 C.3     
  32 C32          -10.9721    -1.0479     4.0289 C.3     
  33 O33          -14.6583    -1.0389     3.3127 O.3     
  34 O34          -13.9292    -1.6967     6.3678 O.2     
  35 C35          -11.9712     0.5732     6.7162 C.3     
  36 C36          -12.4652    -0.0717     8.0127 C.3     
  37 C37          -11.6495     2.0473     6.9702 C.3     
  38 C38          -10.7627     2.1693     8.2110 C.3     
  39 O39          -10.7238     3.5330     8.6364 O.3     
  40 C40           -9.3462     1.6997     7.8737 C.3     
  41 C41           -8.8858     2.3611     6.5731 C.3     
  42 C42           -8.3961     2.0892     9.0079 C.3     
  43 C43           -9.3401     0.1793     7.7027 C.3     
  44 C44          -12.9498     2.8217     7.1945 C.3     
  45 O45          -12.6545     4.2380     7.3178 O.3     
  46 C46          -13.6947     5.0621     7.5196 C.2     
  47 C47          -13.4654     6.5452     7.6573 C.3     
  48 O48          -14.8148     4.6148     7.5909 O.2     
  49 H49           -4.8141     1.1884    -4.3045 H       
  50 H50           -3.7478    -1.5063    -3.3397 H       
  51 H51           -6.1209    -2.1632    -3.2443 H       
  52 H52           -5.0996    -1.2254    -1.2055 H       
  53 H53           -3.3846     0.4174    -1.7185 H       
  54 H54           -3.8941     2.0576    -2.1866 H       
  55 H55           -2.4800     1.6911    -4.2334 H       
  56 H56           -3.7025    -1.1585    -5.7059 H       
  57 H57           -7.7405    -0.4401    -3.5854 H       
  58 H58           -6.1649    -0.6584     0.6396 H       
  59 H59           -6.5501     1.5344     0.7183 H       
  60 H60           -7.7382     1.4408    -0.5871 H       
  61 H61           -9.6411    -0.8742    -0.5261 H       
  62 H62           -8.2494     1.1349     2.4009 H       
  63 H63           -8.8223     2.3904     1.3024 H       
  64 H64          -10.6976    -2.6623     0.1867 H       
  65 H65          -10.2785    -2.4743     1.8720 H       
  66 H66          -12.5049    -1.2698     0.2746 H       
  67 H67          -12.5879    -2.2193     1.7411 H       
  68 H68          -13.1501     0.2872     1.6945 H       
  69 H69          -10.7447     2.3191     0.0729 H       
  70 H70          -11.5214     0.7174    -0.4267 H       
  71 H71           -6.9452    -3.1183     0.5364 H       
  72 H72           -8.6699    -3.4732     0.7963 H       
  73 H73           -8.1288    -2.7690    -0.7463 H       
  74 H74           -7.9003    -0.4241     2.8181 H       
  75 H75           -8.6869    -2.0193     2.8880 H       
  76 H76           -6.9368    -1.9025     2.5853 H       
  77 H77          -11.5393     2.7224     4.7263 H       
  78 H78          -10.4695     1.3214     4.6570 H       
  79 H79          -10.0428     2.5389     2.6708 H       
  80 H80          -11.7424     2.8685     2.3752 H       
  81 H81          -13.1658    -2.3679     3.8827 H       
  82 H82          -13.9084     1.0989     5.9467 H       
  83 H83          -14.6212     1.0390     3.5767 H       
  84 H84          -13.9648     2.5674     4.2106 H       
  85 H85          -13.4571     1.9765     2.6101 H       
  86 H86          -10.1357    -0.4040     3.7573 H       
  87 H87          -11.0083    -1.1588     5.1127 H       
  88 H88          -10.8418    -2.0269     3.5677 H       
  89 H89          -15.4019    -1.5905     3.5919 H       
  90 H90          -11.0730     0.0591     6.3740 H       
  91 H91          -11.6898     0.0049     8.7750 H       
  92 H92          -13.3633     0.4424     8.3550 H       
  93 H93          -12.6943    -1.1219     7.8318 H       
  94 H94          -11.1257     2.4588     6.1074 H       
  95 H95          -11.1697     1.5507     9.0108 H       
  96 H96          -11.5891     3.8979     8.8671 H       
  97 H97           -8.8304     3.4405     6.7141 H       
  98 H98           -7.9020     1.9794     6.2998 H       
  99 H99           -9.5969     2.1345     5.7787 H       
 100 H100          -8.7730     1.6916     9.9503 H       
 101 H101          -7.4062     1.6779     8.8101 H       
 102 H102          -8.3321     3.1754     9.0715 H       
 103 H103          -9.7459    -0.0779     6.7243 H       
 104 H104          -8.3179    -0.1910     7.7808 H       
 105 H105          -9.9521    -0.2763     8.4811 H       
 106 H106         -13.6182     2.6623     6.3484 H       
 107 H107         -13.4294     2.4697     8.1078 H       
 108 H108         -13.5191     7.0139     6.6747 H       
 109 H109         -14.2301     6.9724     8.3059 H       
 110 H110         -12.4811     6.7219     8.0908 H       
@<TRIPOS>BOND
   1    1    2 1
   2    1    7 1
   3    1    6 1
   4    1   49 1
   5    2    3 1
   6    2    8 1
   7    2   50 1
   8    3    4 1
   9    3    9 1
  10    3   51 1
  11    4    5 1
  12    4   10 1
  13    4   52 1
  14    5    6 1
  15    6   53 1
  16    6   54 1
  17    7   55 1
  18    8   56 1
  19    9   57 1
  20   10   11 1
  21   11   12 1
  22   11   13 1
  23   11   58 1
  24   12   16 1
  25   12   59 1
  26   12   60 1
  27   13   14 1
  28   13   22 1
  29   13   23 1
  30   14   15 1
  31   14   17 1
  32   14   61 1
  33   15   16 1
  34   15   21 1
  35   15   20 1
  36   16   62 1
  37   16   63 1
  38   17   18 1
  39   17   64 1
  40   17   65 1
  41   18   19 1
  42   18   66 1
  43   18   67 1
  44   19   20 1
  45   19   24 1
  46   19   68 1
  47   20   21 1
  48   20   27 1
  49   21   69 1
  50   21   70 1
  51   22   71 1
  52   22   72 1
  53   22   73 1
  54   23   74 1
  55   23   75 1
  56   23   76 1
  57   24   25 1
  58   24   28 1
  59   24   32 1
  60   25   26 1
  61   25   31 1
  62   25   30 1
  63   26   27 1
  64   26   77 1
  65   26   78 1
  66   27   79 1
  67   27   80 1
  68   28   29 1
  69   28   33 1
  70   28   81 1
  71   29   30 1
  72   29   34 2
  73   30   35 1
  74   30   82 1
  75   31   83 1
  76   31   84 1
  77   31   85 1
  78   32   86 1
  79   32   87 1
  80   32   88 1
  81   33   89 1
  82   35   36 1
  83   35   37 1
  84   35   90 1
  85   36   91 1
  86   36   92 1
  87   36   93 1
  88   37   38 1
  89   37   44 1
  90   37   94 1
  91   38   39 1
  92   38   40 1
  93   38   95 1
  94   39   96 1
  95   40   41 1
  96   40   42 1
  97   40   43 1
  98   41   97 1
  99   41   98 1
 100   41   99 1
 101   42  100 1
 102   42  101 1
 103   42  102 1
 104   43  103 1
 105   43  104 1
 106   43  105 1
 107   44   45 1
 108   44  106 1
 109   44  107 1
 110   45   46 1
 111   46   47 1
 112   46   48 2
 113   47  108 1
 114   47  109 1
 115   47  110 1

#	End of record

