#	Name: ASD02610016
#	Creating user name:	WinNT
#	Creation time:	15. 06. 2019 20:25

#	Modifying user name:	WinNT
#	Modification time:	15. 06. 2019 20:25

#	Program:	/corina/corina34_cracker 3.40 0067  02.08.2006

@<TRIPOS>MOLECULE
ASD02610016
 107  109    0    0    0
SMALL
NO_CHARGES


@<TRIPOS>ATOM
   1 C1             0.3066     1.1276    -0.2541 C.3     
   2 C2             0.6770    -0.3677    -0.3597 C.3     
   3 C3             2.1813    -0.4244    -0.4487 C.2     
   4 C4             2.7183     0.7577    -0.3709 C.2     
   5 C5             1.6628     1.8038    -0.1272 C.3     
   6 C6             4.1636     1.1191    -0.6077 C.3     
   7 C7             4.5470     2.2884     0.2722 C.3     
   8 C8             4.2444     3.6374    -0.2960 C.3     
   9 C9             2.8145     4.0480    -0.0512 C.3     
  10 C10            1.8467     3.1133    -0.7785 C.3     
  11 O11            0.0844    -0.9455    -1.5527 O.3     
  12 C12            2.9688    -1.6993    -0.6083 C.3     
  13 O13           -0.5034     1.3747     0.9254 O.3     
  14 H14            1.7501     2.0217     0.9372 H       
  15 O15            0.5541     3.7683    -0.8701 O.3     
  16 C16            2.3698     2.8810    -2.1975 C.3     
  17 O17            4.4896     3.6123    -1.7270 O.3     
  18 C18            4.8772     4.7631    -2.2991 C.2     
  19 C19            5.1500     4.8136    -3.7803 C.3     
  20 O20            5.0073     5.7583    -1.6265 O.2     
  21 O21            5.0931     0.0607    -0.2555 O.3     
  22 C22            6.2873     0.6515    -0.0058 C.2     
  23 C23            6.0226     2.0234     0.5980 C.3     
  24 O24            3.8111     2.1658     1.4910 O.3     
  25 C25            5.5726     6.2307    -4.1730 C.3     
  26 C26            5.8496     6.2821    -5.6768 C.3     
  27 C27           -1.8355     1.3074     0.7749 C.2     
  28 C28           -2.7404     1.5522     1.9548 C.3     
  29 C29           -4.1996     1.4163     1.5152 C.3     
  30 C30           -5.1184     1.6648     2.7131 C.3     
  31 C31           -6.5776     1.5290     2.2736 C.3     
  32 C32           -7.4963     1.7774     3.4715 C.3     
  33 O33           -2.3090     1.0507    -0.3067 O.2     
  34 O34            7.3744     0.1718    -0.2247 O.2     
  35 O35            6.8565     3.0100    -0.0131 O.3     
  36 C36           -8.9555     1.6416     3.0319 C.3     
  37 C37           -9.8743     1.8901     4.2298 C.3     
  38 C38            6.2420     1.9956     2.1119 C.3     
  39 C39           -0.0398     4.1085     0.2845 C.2     
  40 C40           -1.3251     4.8952     0.2676 C.3     
  41 O41            0.4559     3.7839     1.3375 O.2     
  42 C42           -0.2344    -2.2485    -1.5049 C.2     
  43 C43           -0.8532    -2.9173    -2.7052 C.3     
  44 O44           -0.0252    -2.8852    -0.4995 O.2     
  45 C45           -1.1162    -4.3910    -2.3888 C.3     
  46 C46           -1.7445    -5.0700    -3.6074 C.3     
  47 C47           -2.0075    -6.5436    -3.2910 C.3     
  48 C48           -2.6358    -7.2227    -4.5097 C.3     
  49 C49           -2.8988    -8.6963    -4.1933 C.3     
  50 C50           -3.5271    -9.3753    -5.4119 C.3     
  51 H51           -0.2087     1.4621    -1.1545 H       
  52 H52            0.3338    -0.9020     0.5262 H       
  53 H53            4.3069     1.3869    -1.6545 H       
  54 H54            4.9071     4.3715     0.1623 H       
  55 H55            2.6099     4.0136     1.0189 H       
  56 H56            2.6674     5.0665    -0.4108 H       
  57 H57            2.2843    -2.5467    -0.6475 H       
  58 H58            3.5468    -1.6562    -1.5314 H       
  59 H59            3.6449    -1.8172     0.2385 H       
  60 H60            1.5911     2.4129    -2.7996 H       
  61 H61            2.6486     3.8360    -2.6428 H       
  62 H62            3.2422     2.2286    -2.1609 H       
  63 H63            5.9494     4.1148    -4.0266 H       
  64 H64            4.2470     4.5395    -4.3257 H       
  65 H65            3.9858     2.8714     2.1287 H       
  66 H66            4.7732     6.9296    -3.9267 H       
  67 H67            6.4756     6.5049    -3.6276 H       
  68 H68            6.1506     7.2916    -5.9566 H       
  69 H69            6.6490     5.5832    -5.9231 H       
  70 H70            4.9465     6.0079    -6.2222 H       
  71 H71           -2.5264     0.8213     2.7346 H       
  72 H72           -2.5695     2.5568     2.3415 H       
  73 H73           -4.4137     2.1472     0.7354 H       
  74 H74           -4.3706     0.4117     1.1284 H       
  75 H75           -4.9043     0.9340     3.4930 H       
  76 H76           -4.9475     2.6694     3.0999 H       
  77 H77           -6.7916     2.2598     1.4937 H       
  78 H78           -6.7485     0.5243     1.8868 H       
  79 H79           -7.2822     1.0466     4.2513 H       
  80 H80           -7.3254     2.7821     3.8582 H       
  81 H81            7.8001     2.8898     0.1607 H       
  82 H82           -9.1696     2.3724     2.2521 H       
  83 H83           -9.1264     0.6370     2.6451 H       
  84 H84           -9.7033     2.8947     4.6166 H       
  85 H85          -10.9138     1.7933     3.9167 H       
  86 H86           -9.6602     1.1592     5.0097 H       
  87 H87            5.6351     1.2046     2.5525 H       
  88 H88            7.2945     1.8064     2.3231 H       
  89 H89            5.9527     2.9559     2.5387 H       
  90 H90           -1.6158     5.0940    -0.7640 H       
  91 H91           -2.1089     4.3214     0.7619 H       
  92 H92           -1.1800     5.8394     0.7925 H       
  93 H93           -1.7941    -2.4249    -2.9507 H       
  94 H94           -0.1725    -2.8437    -3.5533 H       
  95 H95           -0.1753    -4.8834    -2.1433 H       
  96 H96           -1.7969    -4.4646    -1.5407 H       
  97 H97           -2.6854    -4.5775    -3.8529 H       
  98 H98           -1.0638    -4.9964    -4.4556 H       
  99 H99           -1.0666    -7.0361    -3.0456 H       
 100 H100          -2.6882    -6.6173    -2.4429 H       
 101 H101          -3.5767    -6.7302    -4.7551 H       
 102 H102          -1.9551    -7.1490    -5.3578 H       
 103 H103          -1.9579    -9.1888    -3.9478 H       
 104 H104          -3.5795    -8.7699    -3.3451 H       
 105 H105          -2.8464    -9.3017    -6.2600 H       
 106 H106          -3.7145   -10.4252    -5.1865 H       
 107 H107          -4.4680    -8.8829    -5.6574 H       
@<TRIPOS>BOND
   1    1    2 1
   2    1    5 1
   3    1   13 1
   4    1   51 1
   5    2    3 1
   6    2   11 1
   7    2   52 1
   8    3    4 2
   9    3   12 1
  10    4    5 1
  11    4    6 1
  12    5   10 1
  13    5   14 1
  14    6    7 1
  15    6   21 1
  16    6   53 1
  17    7   23 1
  18    7   24 1
  19    7    8 1
  20    8    9 1
  21    8   17 1
  22    8   54 1
  23    9   10 1
  24    9   55 1
  25    9   56 1
  26   10   15 1
  27   10   16 1
  28   11   42 1
  29   12   57 1
  30   12   58 1
  31   12   59 1
  32   13   27 1
  33   15   39 1
  34   16   60 1
  35   16   61 1
  36   16   62 1
  37   17   18 1
  38   18   19 1
  39   18   20 2
  40   19   25 1
  41   19   63 1
  42   19   64 1
  43   21   22 1
  44   22   23 1
  45   22   34 2
  46   23   35 1
  47   23   38 1
  48   24   65 1
  49   25   26 1
  50   25   66 1
  51   25   67 1
  52   26   68 1
  53   26   69 1
  54   26   70 1
  55   27   28 1
  56   27   33 2
  57   28   29 1
  58   28   71 1
  59   28   72 1
  60   29   30 1
  61   29   73 1
  62   29   74 1
  63   30   31 1
  64   30   75 1
  65   30   76 1
  66   31   32 1
  67   31   77 1
  68   31   78 1
  69   32   36 1
  70   32   79 1
  71   32   80 1
  72   35   81 1
  73   36   37 1
  74   36   82 1
  75   36   83 1
  76   37   84 1
  77   37   85 1
  78   37   86 1
  79   38   87 1
  80   38   88 1
  81   38   89 1
  82   39   40 1
  83   39   41 2
  84   40   90 1
  85   40   91 1
  86   40   92 1
  87   42   43 1
  88   42   44 2
  89   43   45 1
  90   43   93 1
  91   43   94 1
  92   45   46 1
  93   45   95 1
  94   45   96 1
  95   46   47 1
  96   46   97 1
  97   46   98 1
  98   47   48 1
  99   47   99 1
 100   47  100 1
 101   48   49 1
 102   48  101 1
 103   48  102 1
 104   49   50 1
 105   49  103 1
 106   49  104 1
 107   50  105 1
 108   50  106 1
 109   50  107 1

#	End of record

