#	Name: ASD07300676
#	Creating user name:	WinNT
#	Creation time:	15. 06. 2019 21:10

#	Modifying user name:	WinNT
#	Modification time:	15. 06. 2019 21:10

#	Program:	/corina/corina34_cracker 3.40 0067  02.08.2006

@<TRIPOS>MOLECULE
ASD07300676
  24   24    0    0    0
SMALL
NO_CHARGES


@<TRIPOS>ATOM
   1 C1            -0.0187     1.5258     0.0104 C.3     
   2 C2             0.0021    -0.0041     0.0020 C.3     
   3 C3             0.8250    -0.4964    -1.1902 C.3     
   4 O4             0.5895    -0.4792     1.2150 O.3     
   5 C5            -1.4290    -0.5329    -0.1129 C.3     
   6 C6             1.3951     2.0474    -0.0003 C.ar    
   7 C7             1.7879     2.9358    -0.9838 C.ar    
   8 C8             3.0903     3.4102    -0.9848 C.ar    
   9 C9             3.9537     2.9710     0.0087 C.ar    
  10 C10            3.4890     2.0812     0.9597 C.ar    
  11 N11            2.2413     1.6551     0.9318 N.ar    
  12 Br12           5.7428     3.5811     0.0612 Br      
  13 H13           -0.5459     1.8868    -0.8726 H       
  14 H14           -0.5289     1.8773     0.9072 H       
  15 H15            1.8445    -0.1197    -1.1083 H       
  16 H16            0.8398    -1.5863    -1.1962 H       
  17 H17            0.3769    -0.1340    -2.1154 H       
  18 H18            0.1188    -0.2046     2.0138 H       
  19 H19           -1.8771    -0.1705    -1.0381 H       
  20 H20           -1.4142    -1.6228    -0.1189 H       
  21 H21           -2.0153    -0.1821     0.7365 H       
  22 H22            1.0888     3.2560    -1.7422 H       
  23 H23            3.4251     4.1048    -1.7410 H       
  24 H24            4.1545     1.7340     1.7363 H       
@<TRIPOS>BOND
   1    1    2 1
   2    1    6 1
   3    1   13 1
   4    1   14 1
   5    2    3 1
   6    2    4 1
   7    2    5 1
   8    3   15 1
   9    3   16 1
  10    3   17 1
  11    4   18 1
  12    5   19 1
  13    5   20 1
  14    5   21 1
  15    6    7 ar
  16    6   11 ar
  17    7    8 ar
  18    7   22 1
  19    8    9 ar
  20    8   23 1
  21    9   10 ar
  22    9   12 1
  23   10   11 ar
  24   10   24 1

#	End of record

