#	Name: ASD00071087
#	Creating user name:	WinNT
#	Creation time:	15. 06. 2019 18:30

#	Modifying user name:	WinNT
#	Modification time:	15. 06. 2019 18:30

#	Program:	/corina/corina34_cracker 3.40 0067  02.08.2006

@<TRIPOS>MOLECULE
ASD00071087
  39   41    0    0    0
SMALL
NO_CHARGES


@<TRIPOS>ATOM
   1 N1            -0.0157     1.3075     0.0092 N.2     
   2 C2             0.0021    -0.0041     0.0020 C.2     
   3 N3             1.1997    -0.6822     0.0318 N.pl3   
   4 C4             2.3741    -0.0677    -0.6057 C.3     
   5 C5             2.3601     1.4073    -0.2839 C.ar    
   6 C6             3.5304     2.1331    -0.2739 C.ar    
   7 C7             3.5016     3.4876     0.0114 C.ar    
   8 C8             2.3001     4.1168     0.2859 C.ar    
   9 C9             1.1223     3.3989     0.2837 C.ar    
  10 C10            1.1437     2.0312     0.0020 C.ar    
  11 S11           -1.5134    -0.9017    -0.0455 S.3     
  12 C12           -2.6917     0.4720    -0.0702 C.3     
  13 C13            1.3025    -1.9892     0.6857 C.3     
  14 C14            1.0064    -3.0763    -0.3151 C.ar    
  15 C15            1.9874    -3.4845    -1.2074 C.ar    
  16 C16            1.7118    -4.4853    -2.1274 C.ar    
  17 C17            0.4617    -5.0731    -2.1532 C.ar    
  18 C18           -0.5142    -4.6643    -1.2635 C.ar    
  19 C19           -0.2399    -3.6710    -0.3412 C.ar    
  20 O20            3.2161    -2.9045    -1.1803 O.3     
  21 C21            4.1766    -3.3749    -2.1281 C.3     
  22 H22            3.2850    -0.5214    -0.2154 H       
  23 H23            2.3240    -0.2099    -1.6852 H       
  24 H24            4.4702     1.6459    -0.4880 H       
  25 H25            4.4204     4.0551     0.0200 H       
  26 H26            2.2846     5.1746     0.5033 H       
  27 H27            0.1863     3.8931     0.4986 H       
  28 H28           -2.5137     1.0876    -0.9520 H       
  29 H29           -3.7078     0.0786    -0.1008 H       
  30 H30           -2.5632     1.0771     0.8273 H       
  31 H31            2.3110    -2.1210     1.0777 H       
  32 H32            0.5846    -2.0435     1.5041 H       
  33 H33            2.4736    -4.8046    -2.8232 H       
  34 H34            0.2465    -5.8524    -2.8694 H       
  35 H35           -1.4910    -5.1245    -1.2857 H       
  36 H36           -1.0025    -3.3567     0.3561 H       
  37 H37            4.3516    -4.4391    -1.9704 H       
  38 H38            3.7992    -3.2144    -3.1380 H       
  39 H39            5.1117    -2.8298    -1.9988 H       
@<TRIPOS>BOND
   1    1    2 2
   2    1   10 1
   3    2    3 1
   4    2   11 1
   5    3    4 1
   6    3   13 1
   7    4    5 1
   8    4   22 1
   9    4   23 1
  10    5    6 ar
  11    5   10 ar
  12    6    7 ar
  13    6   24 1
  14    7    8 ar
  15    7   25 1
  16    8    9 ar
  17    8   26 1
  18    9   10 ar
  19    9   27 1
  20   11   12 1
  21   12   28 1
  22   12   29 1
  23   12   30 1
  24   13   14 1
  25   13   31 1
  26   13   32 1
  27   14   15 ar
  28   14   19 ar
  29   15   16 ar
  30   15   20 1
  31   16   17 ar
  32   16   33 1
  33   17   18 ar
  34   17   34 1
  35   18   19 ar
  36   18   35 1
  37   19   36 1
  38   20   21 1
  39   21   37 1
  40   21   38 1
  41   21   39 1

#	End of record

