#	Name: ASD01230462
#	Creating user name:	WinNT
#	Creation time:	15. 06. 2019 19:14

#	Modifying user name:	WinNT
#	Modification time:	15. 06. 2019 19:14

#	Program:	/corina/corina34_cracker 3.40 0067  02.08.2006

@<TRIPOS>MOLECULE
ASD01230462
  38   39    0    0    0
SMALL
NO_CHARGES


@<TRIPOS>ATOM
   1 C1            -0.0168     1.3872     0.0097 C.ar    
   2 C2             0.0021    -0.0041     0.0020 C.ar    
   3 C3             1.2195    -0.6601    -0.0132 C.ar    
   4 C4             2.3819     0.0999    -0.0202 C.ar    
   5 C5             2.2894     1.4770    -0.0120 C.ar    
   6 N6             1.1137     2.0763     0.0026 N.ar    
   7 N7            -1.2334     2.0595     0.0191 N.pl3   
   8 C8            -1.2865    -0.7854     0.0107 C.3     
   9 C9            -1.8021    -0.9347    -1.4221 C.3     
  10 C10           -3.0907    -1.7160    -1.4134 C.ar    
  11 C11           -4.2989    -1.0552    -1.2935 C.ar    
  12 C12           -5.4809    -1.7720    -1.2855 C.ar    
  13 C13           -5.4547    -3.1495    -1.3979 C.ar    
  14 C14           -4.2465    -3.8102    -1.5188 C.ar    
  15 C15           -3.0647    -3.0931    -1.5311 C.ar    
  16 C16           -6.7432    -3.9309    -1.3882 C.3     
  17 C17           -6.8775    -4.7093    -2.6986 C.3     
  18 C18           -6.7373    -4.9095    -0.2121 C.3     
  19 H19            1.2652    -1.7391    -0.0191 H       
  20 H20            3.3485    -0.3817    -0.0317 H       
  21 H21            3.1908     2.0718    -0.0174 H       
  22 H22           -2.0642     1.5589     0.0203 H       
  23 H23           -1.2515     3.0293     0.0244 H       
  24 H24           -1.1100    -1.7725     0.4380 H       
  25 H25           -2.0277    -0.2572     0.6104 H       
  26 H26           -1.9786     0.0524    -1.8494 H       
  27 H27           -1.0609    -1.4629    -2.0218 H       
  28 H28           -4.3194     0.0210    -1.2057 H       
  29 H29           -6.4248    -1.2557    -1.1911 H       
  30 H30           -4.2260    -4.8865    -1.6063 H       
  31 H31           -2.1210    -3.6090    -1.6292 H       
  32 H32           -7.5837    -3.2445    -1.2856 H       
  33 H33           -6.0370    -5.3957    -2.8012 H       
  34 H34           -7.8095    -5.2745    -2.6916 H       
  35 H35           -6.8817    -4.0121    -3.5365 H       
  36 H36           -6.6417    -4.3550     0.7214 H       
  37 H37           -7.6693    -5.4747    -0.2051 H       
  38 H38           -5.8969    -5.5959    -0.3147 H       
@<TRIPOS>BOND
   1    1    2 ar
   2    1    6 ar
   3    1    7 1
   4    2    3 ar
   5    2    8 1
   6    3    4 ar
   7    3   19 1
   8    4    5 ar
   9    4   20 1
  10    5    6 ar
  11    5   21 1
  12    7   22 1
  13    7   23 1
  14    8    9 1
  15    8   24 1
  16    8   25 1
  17    9   10 1
  18    9   26 1
  19    9   27 1
  20   10   11 ar
  21   10   15 ar
  22   11   12 ar
  23   11   28 1
  24   12   13 ar
  25   12   29 1
  26   13   14 ar
  27   13   16 1
  28   14   15 ar
  29   14   30 1
  30   15   31 1
  31   16   17 1
  32   16   18 1
  33   16   32 1
  34   17   33 1
  35   17   34 1
  36   17   35 1
  37   18   36 1
  38   18   37 1
  39   18   38 1

#	End of record

