#	Name: ASD07930415
#	Creating user name:	WinNT
#	Creation time:	15. 06. 2019 21:12

#	Modifying user name:	WinNT
#	Modification time:	15. 06. 2019 21:12

#	Program:	/corina/corina34_cracker 3.40 0067  02.08.2006

@<TRIPOS>MOLECULE
ASD07930415
  47   49    0    0    0
SMALL
NO_CHARGES


@<TRIPOS>ATOM
   1 N1            -0.0130     1.3007    -0.0268 N.2     
   2 N2             1.1950    -0.6998    -0.0381 N.pl3   
   3 C3             1.4417    -1.7358     0.9704 C.3     
   4 C4             0.3487    -2.8090     0.8712 C.3     
   5 S5            -1.2691    -1.9956     1.0589 S.o2    
   6 N6            -1.1743    -0.7352    -0.0268 N.am    
   7 C7             0.0042    -0.0026    -0.0306 C.2     
   8 C8            -2.2804    -0.4165    -0.9331 C.3     
   9 C9             1.4157    -1.1075     2.3652 C.3     
  10 C10            2.7888    -2.3654     0.7260 C.ar    
  11 C11            3.9244    -1.5807     0.7621 C.ar    
  12 C12            5.1629    -2.1664     0.5366 C.ar    
  13 C13            5.2138    -3.5254     0.2820 C.ar    
  14 C14            4.0298    -4.2543     0.2607 C.ar    
  15 N15            2.8685    -3.6602     0.4856 N.ar    
  16 O16           -2.3104    -2.8222     0.5572 O.2     
  17 O17           -1.3730    -1.3665     2.3288 O.2     
  18 N18            4.0666    -5.6233     0.0052 N.am    
  19 C19            2.9372    -6.3544     0.0857 C.2     
  20 O20            1.9064    -5.8397     0.4719 O.2     
  21 C21            2.9525    -7.7854    -0.2967 C.ar    
  22 N22            4.0814    -8.3420    -0.7179 N.ar    
  23 C23            4.1379    -9.6090    -1.0664 C.ar    
  24 C24            3.0121   -10.4144    -1.0065 C.ar    
  25 C25            1.8118    -9.8735    -0.5721 C.ar    
  26 C26            1.7830    -8.5373    -0.2058 C.ar    
  27 C27            3.0914   -11.8642    -1.4099 C.3     
  28 F28            4.3982   -12.1668    -1.8075 F       
  29 F29            2.7360   -12.6708    -0.3235 F       
  30 F30            2.2138   -12.1011    -2.4734 F       
  31 H31            0.8205     1.7967    -0.0295 H       
  32 H32            1.8694    -0.5023    -0.7067 H       
  33 H33            0.4028    -3.2997    -0.1006 H       
  34 H34            0.4839    -3.5454     1.6634 H       
  35 H35           -2.9484     0.2989    -0.4534 H       
  36 H36           -1.8843     0.0159    -1.8519 H       
  37 H37           -2.8315    -1.3271    -1.1681 H       
  38 H38            0.4402    -0.6543     2.5415 H       
  39 H39            1.5991    -1.8779     3.1142 H       
  40 H40            2.1894    -0.3428     2.4336 H       
  41 H41            3.8500    -0.5223     0.9633 H       
  42 H42            6.0660    -1.5746     0.5591 H       
  43 H43            6.1603    -4.0134     0.1019 H       
  44 H44            4.9050    -6.0503    -0.2307 H       
  45 H45            5.0746   -10.0271    -1.4044 H       
  46 H46            0.9204   -10.4807    -0.5166 H       
  47 H47            0.8652    -8.0831     0.1372 H       
@<TRIPOS>BOND
   1    1    7 2
   2    1   31 1
   3    2    3 1
   4    2    7 1
   5    2   32 1
   6    3    4 1
   7    3    9 1
   8    3   10 1
   9    4    5 1
  10    4   33 1
  11    4   34 1
  12    5    6 am
  13    5   16 2
  14    5   17 2
  15    6    7 1
  16    6    8 1
  17    8   35 1
  18    8   36 1
  19    8   37 1
  20    9   38 1
  21    9   39 1
  22    9   40 1
  23   10   11 ar
  24   10   15 ar
  25   11   12 ar
  26   11   41 1
  27   12   13 ar
  28   12   42 1
  29   13   14 ar
  30   13   43 1
  31   14   15 ar
  32   14   18 1
  33   18   19 am
  34   18   44 1
  35   19   20 2
  36   19   21 1
  37   21   22 ar
  38   21   26 ar
  39   22   23 ar
  40   23   24 ar
  41   23   45 1
  42   24   25 ar
  43   24   27 1
  44   25   26 ar
  45   25   46 1
  46   26   47 1
  47   27   28 1
  48   27   29 1
  49   27   30 1

#	End of record

