#	Name: ASD01850122
#	Creating user name:	WinNT
#	Creation time:	15. 06. 2019 19:38

#	Modifying user name:	WinNT
#	Modification time:	15. 06. 2019 19:38

#	Program:	/corina/corina34_cracker 3.40 0067  02.08.2006

@<TRIPOS>MOLECULE
ASD01850122
  65   69    0    0    0
SMALL
NO_CHARGES


@<TRIPOS>ATOM
   1 C1            -0.3345     1.6479     1.0951 C.ar    
   2 C2            -0.3533     0.2867     0.8492 C.ar    
   3 C3             0.8250    -0.3958     0.6258 C.ar    
   4 C4             2.0397     0.2886     0.6476 C.ar    
   5 C5             2.0501     1.6632     0.9154 C.ar    
   6 C6             0.8680     2.3338     1.1275 C.ar    
   7 C7             3.4345    -0.1498     0.4269 C.2     
   8 N8             4.2418     0.9098     0.3963 N.am    
   9 C9             3.4932     2.0746     0.9233 C.3     
  10 C10            5.5330     1.5058     0.0054 C.3     
  11 C11            5.1136     2.8714    -0.5927 C.3     
  12 N12            3.7865     3.1680    -0.0096 N.am    
  13 C13            3.0030     4.2302    -0.2820 C.2     
  14 C14            3.4746     5.2764    -1.2103 C.ar    
  15 C15            2.6349     6.3396    -1.5526 C.ar    
  16 C16            3.0788     7.3139    -2.4186 C.ar    
  17 C17            4.3601     7.2405    -2.9524 C.ar    
  18 C18            5.1984     6.1846    -2.6144 C.ar    
  19 C19            4.7640     5.2094    -1.7446 C.ar    
  20 O20            1.9077     4.3267     0.2368 O.2     
  21 C21            3.9437     2.4122     2.3212 C.ar    
  22 O22            3.7912    -1.3040     0.2933 O.2     
  23 O23            4.7936     8.2022    -3.8062 O.3     
  24 C24            3.8876     3.7197     2.7675 C.ar    
  25 C25            4.3000     4.0318     4.0484 C.ar    
  26 C26            4.7708     3.0322     4.8873 C.ar    
  27 C27            4.8261     1.7211     4.4371 C.ar    
  28 C28            4.4072     1.4132     3.1572 C.ar    
  29 O29            5.1775     3.3368     6.1477 O.3     
  30 C30            5.0038     4.6888     6.5765 C.3     
  31 C31            3.5770     4.8801     7.0948 C.3     
  32 C32            5.9991     5.0007     7.6959 C.3     
  33 C33            3.8380     9.1805    -4.2207 C.3     
  34 C34            3.9193    10.3968    -3.2961 C.3     
  35 C35            4.1394     9.6110    -5.6576 C.3     
  36 H36           -1.2612     2.1783     1.2579 H       
  37 H37           -1.2938    -0.2440     0.8324 H       
  38 H38            0.8065    -1.4586     0.4346 H       
  39 H39            0.8777     3.3967     1.3188 H       
  40 H40            6.1731     1.6460     0.8765 H       
  41 H41            6.0302     0.8918    -0.7456 H       
  42 H42            5.8302     3.6427    -0.3106 H       
  43 H43            5.0414     2.8015    -1.6780 H       
  44 H44            1.6390     6.3969    -1.1388 H       
  45 H45            2.4304     8.1359    -2.6836 H       
  46 H46            6.1932     6.1310    -3.0315 H       
  47 H47            5.4160     4.3893    -1.4824 H       
  48 H48            3.5214     4.4976     2.1139 H       
  49 H49            4.2564     5.0533     4.3965 H       
  50 H50            5.1922     0.9411     5.0882 H       
  51 H51            4.4501     0.3927     2.8063 H       
  52 H52            5.1786     5.3616     5.7369 H       
  53 H53            3.4445     5.9114     7.4219 H       
  54 H54            2.8679     4.6579     6.2974 H       
  55 H55            3.4022     4.2073     7.9344 H       
  56 H56            7.0156     4.8644     7.3266 H       
  57 H57            5.8666     6.0320     8.0230 H       
  58 H58            5.8243     4.3279     8.5355 H       
  59 H59            2.8363     8.7534    -4.1719 H       
  60 H60            3.1904    11.1429    -3.6123 H       
  61 H61            3.7046    10.0900    -2.2724 H       
  62 H62            4.9210    10.8239    -3.3449 H       
  63 H63            4.0814     8.7445    -6.3163 H       
  64 H64            3.4104    10.3572    -5.9738 H       
  65 H65            5.1410    10.0381    -5.7064 H       
@<TRIPOS>BOND
   1    1    2 ar
   2    1    6 ar
   3    1   36 1
   4    2    3 ar
   5    2   37 1
   6    3    4 ar
   7    3   38 1
   8    4    5 ar
   9    4    7 1
  10    5    6 ar
  11    5    9 1
  12    6   39 1
  13    7    8 am
  14    7   22 2
  15    8    9 1
  16    8   10 1
  17    9   21 1
  18    9   12 1
  19   10   11 1
  20   10   40 1
  21   10   41 1
  22   11   12 1
  23   11   42 1
  24   11   43 1
  25   12   13 am
  26   13   14 1
  27   13   20 2
  28   14   15 ar
  29   14   19 ar
  30   15   16 ar
  31   15   44 1
  32   16   17 ar
  33   16   45 1
  34   17   18 ar
  35   17   23 1
  36   18   19 ar
  37   18   46 1
  38   19   47 1
  39   21   24 ar
  40   21   28 ar
  41   23   33 1
  42   24   25 ar
  43   24   48 1
  44   25   26 ar
  45   25   49 1
  46   26   27 ar
  47   26   29 1
  48   27   28 ar
  49   27   50 1
  50   28   51 1
  51   29   30 1
  52   30   31 1
  53   30   32 1
  54   30   52 1
  55   31   53 1
  56   31   54 1
  57   31   55 1
  58   32   56 1
  59   32   57 1
  60   32   58 1
  61   33   34 1
  62   33   35 1
  63   33   59 1
  64   34   60 1
  65   34   61 1
  66   34   62 1
  67   35   63 1
  68   35   64 1
  69   35   65 1

#	End of record

