#	Name: ASD07930759
#	Creating user name:	WinNT
#	Creation time:	15. 06. 2019 21:13

#	Modifying user name:	WinNT
#	Modification time:	15. 06. 2019 21:13

#	Program:	/corina/corina34_cracker 3.40 0067  02.08.2006

@<TRIPOS>MOLECULE
ASD07930759
  46   49    0    0    0
SMALL
NO_CHARGES


@<TRIPOS>ATOM
   1 C1             2.9696    -1.1760    -1.4923 C.3     
   2 N2             2.4557    -3.0909     0.7393 N.2     
   3 N3             0.4222    -3.4512    -0.3546 N.pl3   
   4 C4            -0.9005    -2.8248    -0.2586 C.3     
   5 C5            -0.9805    -1.6568    -1.2513 C.3     
   6 S6             0.3853    -0.5078    -0.8926 S.o2    
   7 N7             1.7085    -1.5187    -0.8301 N.am    
   8 C8             1.5567    -2.7014    -0.1203 C.2     
   9 C9            -1.1166    -2.3026     1.1632 C.3     
  10 O10            0.6358     0.3407    -2.0046 O.2     
  11 O11            0.2722     0.0147     0.4240 O.2     
  12 C12           -1.9634    -3.8404    -0.5898 C.ar    
  13 C13           -2.7981    -3.6365    -1.6684 C.ar    
  14 C14           -3.7822    -4.5780    -1.9740 C.ar    
  15 C15           -3.9158    -5.7213    -1.1854 C.ar    
  16 C16           -3.0757    -5.9156    -0.1087 C.ar    
  17 C17           -2.0967    -4.9806     0.1869 C.ar    
  18 F18           -1.2765    -5.1756     1.2425 F       
  19 C19           -4.6803    -4.3642    -3.1292 C.2     
  20 N20           -5.6826    -5.2204    -3.5243 N.pl3   
  21 C21           -6.3200    -4.7115    -4.6345 C.ar    
  22 C22           -5.6990    -3.4891    -4.9538 C.ar    
  23 C23           -4.6465    -3.2916    -3.9582 C.2     
  24 C24           -7.3766    -5.1638    -5.4181 C.ar    
  25 C25           -7.8022    -4.4136    -6.4939 C.ar    
  26 C26           -7.1859    -3.2077    -6.8049 C.ar    
  27 C27           -6.1468    -2.7447    -6.0491 C.ar    
  28 Cl28          -9.1207    -4.9817    -7.4698 Cl      
  29 H29            3.6028    -0.6188    -0.8018 H       
  30 H30            3.4801    -2.0897    -1.7967 H       
  31 H31            2.7642    -0.5646    -2.3709 H       
  32 H32            3.2471    -2.5511     0.8917 H       
  33 H33            0.4992    -4.3918    -0.5783 H       
  34 H34           -0.8861    -2.0332    -2.2699 H       
  35 H35           -1.9340    -1.1415    -1.1363 H       
  36 H36           -0.3484    -1.5668     1.4007 H       
  37 H37           -2.0998    -1.8373     1.2338 H       
  38 H38           -1.0557    -3.1319     1.8679 H       
  39 H39           -2.6907    -2.7497    -2.2754 H       
  40 H40           -4.6759    -6.4527    -1.4173 H       
  41 H41           -3.1785    -6.8000     0.5026 H       
  42 H42           -5.9064    -6.0568    -3.0870 H       
  43 H43           -3.9676    -2.4539    -3.8980 H       
  44 H44           -7.8619    -6.1000    -5.1847 H       
  45 H45           -7.5313    -2.6321    -7.6510 H       
  46 H46           -5.6728    -1.8063    -6.2966 H       
@<TRIPOS>BOND
   1    1    7 1
   2    1   29 1
   3    1   30 1
   4    1   31 1
   5    2    8 2
   6    2   32 1
   7    3    4 1
   8    3    8 1
   9    3   33 1
  10    4    5 1
  11    4    9 1
  12    4   12 1
  13    5    6 1
  14    5   34 1
  15    5   35 1
  16    6    7 am
  17    6   10 2
  18    6   11 2
  19    7    8 1
  20    9   36 1
  21    9   37 1
  22    9   38 1
  23   12   13 ar
  24   12   17 ar
  25   13   14 ar
  26   13   39 1
  27   14   15 ar
  28   14   19 1
  29   15   16 ar
  30   15   40 1
  31   16   17 ar
  32   16   41 1
  33   17   18 1
  34   19   20 1
  35   19   23 2
  36   20   21 1
  37   20   42 1
  38   21   22 ar
  39   21   24 ar
  40   22   23 1
  41   22   27 ar
  42   23   43 1
  43   24   25 ar
  44   24   44 1
  45   25   26 ar
  46   25   28 1
  47   26   27 ar
  48   26   45 1
  49   27   46 1

#	End of record

