#	Name: ASD01912642
#	Creating user name:	WinNT
#	Creation time:	15. 06. 2019 20:00

#	Modifying user name:	WinNT
#	Modification time:	15. 06. 2019 20:00

#	Program:	/corina/corina34_cracker 3.40 0067  02.08.2006

@<TRIPOS>MOLECULE
ASD01912642
  38   41    0    0    0
SMALL
NO_CHARGES


@<TRIPOS>ATOM
   1 C1            -0.0263     1.3421     0.2527 C.2     
   2 N2             0.0028    -0.0022    -0.0158 N.pl3   
   3 C3            -1.1914    -0.6646    -0.2578 C.2     
   4 C4            -2.3525    -0.0231    -0.2343 C.2     
   5 N5            -2.4358     1.3307     0.0312 N.am    
   6 C6            -1.3127     2.0399     0.2825 C.2     
   7 C7             1.2833     1.7377     0.4508 C.2     
   8 C8             2.0430     0.5807     0.2862 C.2     
   9 N9             1.2235    -0.4068     0.0130 N.2     
  10 O10           -1.3690     3.2334     0.5182 O.2     
  11 C11           -3.6828     1.9658     0.0456 C.ar    
  12 C12            3.5423     0.4815     0.4013 C.3     
  13 O13            4.0826     1.7682     0.7092 O.3     
  14 C14            5.4317     1.8537     0.8480 C.ar    
  15 C15            6.0236     3.0723     1.1468 C.ar    
  16 C16            7.3953     3.1567     1.2873 C.ar    
  17 C17            8.1782     2.0279     1.1304 C.ar    
  18 C18            7.5908     0.8123     0.8322 C.ar    
  19 C19            6.2190     0.7214     0.6967 C.ar    
  20 C20           -4.0083     2.9048    -0.9294 C.ar    
  21 C21           -5.2570     3.5070    -0.8730 C.ar    
  22 C22           -6.1304     3.1567     0.1429 C.ar    
  23 N23           -5.7894     2.2632     1.0509 N.ar    
  24 C24           -4.6159     1.6641     1.0297 C.ar    
  25 F25           -5.6161     4.4243    -1.7976 F       
  26 H26           -1.1758    -1.7234    -0.4699 H       
  27 H27           -3.2600    -0.5755    -0.4287 H       
  28 H28            1.6410     2.7299     0.6830 H       
  29 H29            3.8002    -0.2201     1.1946 H       
  30 H30            3.9568     0.1300    -0.5435 H       
  31 H31            5.4126     3.9544     1.2691 H       
  32 H32            7.8566     4.1052     1.5196 H       
  33 H33            9.2504     2.0959     1.2407 H       
  34 H34            8.2045    -0.0679     0.7094 H       
  35 H35            5.7606    -0.2283     0.4637 H       
  36 H36           -3.3063     3.1584    -1.7099 H       
  37 H37           -7.1039     3.6218     0.1924 H       
  38 H38           -4.3732     0.9376     1.7911 H       
@<TRIPOS>BOND
   1    1    2 1
   2    1    7 2
   3    1    6 1
   4    2    3 1
   5    2    9 1
   6    3    4 2
   7    3   26 1
   8    4    5 1
   9    4   27 1
  10    5    6 am
  11    5   11 1
  12    6   10 2
  13    7    8 1
  14    7   28 1
  15    8    9 2
  16    8   12 1
  17   11   20 ar
  18   11   24 ar
  19   12   13 1
  20   12   29 1
  21   12   30 1
  22   13   14 1
  23   14   15 ar
  24   14   19 ar
  25   15   16 ar
  26   15   31 1
  27   16   17 ar
  28   16   32 1
  29   17   18 ar
  30   17   33 1
  31   18   19 ar
  32   18   34 1
  33   19   35 1
  34   20   21 ar
  35   20   36 1
  36   21   22 ar
  37   21   25 1
  38   22   23 ar
  39   22   37 1
  40   23   24 ar
  41   24   38 1

#	End of record

