#	Name: ASD01810733
#	Creating user name:	WinNT
#	Creation time:	15. 06. 2019 19:25

#	Modifying user name:	WinNT
#	Modification time:	15. 06. 2019 19:25

#	Program:	/corina/corina34_cracker 3.40 0067  02.08.2006

@<TRIPOS>MOLECULE
ASD01810733
  59   64    0    0    0
SMALL
NO_CHARGES


@<TRIPOS>ATOM
   1 C1             0.0021    -0.0041     0.0020 C.1     
   2 C2            -0.0173     1.4278     0.0099 C.ar    
   3 C3             1.1828     2.1448     0.0023 C.ar    
   4 C4             1.1605     3.5211     0.0094 C.ar    
   5 C5            -0.0549     4.1989     0.0246 C.ar    
   6 C6            -1.2516     3.4883     0.0327 C.ar    
   7 C7            -1.2366     2.1119     0.0194 C.ar    
   8 N8             0.0175    -1.1399    -0.0042 N.1     
   9 N9            -0.0738     5.5906     0.0323 N.3     
  10 C10           -1.4527     6.0985     0.0481 C.3     
  11 C11           -1.4298     7.6263     0.1364 C.3     
  12 N12           -0.6847     8.1694    -1.0079 N.3     
  13 C13            0.6942     7.6615    -1.0238 C.3     
  14 C14            0.6713     6.1337    -1.1121 C.3     
  15 C15           -0.7046     9.6383    -0.9999 C.3     
  16 C16            0.2620    10.1594    -2.0319 C.2     
  17 C17            1.5763    10.3002    -1.7037 C.2     
  18 C18            2.4776    10.7858    -2.6650 C.2     
  19 C19            1.9796    11.1299    -4.0011 C.2     
  20 N20            0.6309    10.9665    -4.2776 N.pl3   
  21 C21            0.1561    11.2812    -5.5110 C.2     
  22 C22           -1.1564    11.1322    -5.8091 C.2     
  23 C23           -2.0447    10.6483    -4.8414 C.2     
  24 C24           -1.5764    10.3291    -3.5998 C.2     
  25 C25           -0.2095    10.4844    -3.3134 C.2     
  26 N26            4.1597    11.5116    -3.9109 N.am    
  27 N27            3.0043    11.5515    -4.6976 N.2     
  28 C28            3.8581    11.0510    -2.6794 C.2     
  29 O29            4.6382    10.8945    -1.7504 O.2     
  30 C30            5.4382    11.8927    -4.3375 C.ar    
  31 C31            5.9942    11.3165    -5.4752 C.ar    
  32 C32            7.2566    11.6957    -5.8927 C.ar    
  33 C33            7.9653    12.6461    -5.1803 C.ar    
  34 C34            7.4148    13.2196    -4.0491 C.ar    
  35 C35            6.1513    12.8502    -3.6294 C.ar    
  36 F36            5.3020    10.3879    -6.1706 F       
  37 H37            2.1264     1.6194    -0.0088 H       
  38 H38            2.0873     4.0756     0.0035 H       
  39 H39           -2.1930     4.0173     0.0452 H       
  40 H40           -2.1656     1.5611     0.0211 H       
  41 H41           -1.9627     5.7947    -0.8660 H       
  42 H42           -1.9800     5.6923     0.9113 H       
  43 H43           -2.4510     8.0070     0.1191 H       
  44 H44           -0.9439     7.9298     1.0638 H       
  45 H45            1.2215     8.0678    -1.8870 H       
  46 H46            1.2042     7.9653    -0.1096 H       
  47 H47            1.6925     5.7531    -1.0948 H       
  48 H48            0.1854     5.8303    -2.0394 H       
  49 H49           -1.7098     9.9893    -1.2336 H       
  50 H50           -0.4135    10.0002    -0.0138 H       
  51 H51            1.9219    10.0413    -0.7138 H       
  52 H52            0.8343    11.6556    -6.2635 H       
  53 H53           -1.5183    11.3872    -6.7942 H       
  54 H54           -3.0923    10.5288    -5.0753 H       
  55 H55           -2.2510     9.9551    -2.8439 H       
  56 H56            7.6898    11.2491    -6.7755 H       
  57 H57            8.9512    12.9407    -5.5082 H       
  58 H58            7.9716    13.9608    -3.4952 H       
  59 H59            5.7206    13.3029    -2.7486 H       
@<TRIPOS>BOND
   1    1    2 1
   2    1    8 3
   3    2    3 ar
   4    2    7 ar
   5    3    4 ar
   6    3   37 1
   7    4    5 ar
   8    4   38 1
   9    5    6 ar
  10    5    9 1
  11    6    7 ar
  12    6   39 1
  13    7   40 1
  14    9   10 1
  15    9   14 1
  16   10   11 1
  17   10   41 1
  18   10   42 1
  19   11   12 1
  20   11   43 1
  21   11   44 1
  22   12   13 1
  23   12   15 1
  24   13   14 1
  25   13   45 1
  26   13   46 1
  27   14   47 1
  28   14   48 1
  29   15   16 1
  30   15   49 1
  31   15   50 1
  32   16   17 1
  33   16   25 2
  34   17   18 2
  35   17   51 1
  36   18   19 1
  37   18   28 1
  38   19   20 1
  39   19   27 2
  40   20   21 1
  41   20   25 1
  42   21   22 2
  43   21   52 1
  44   22   23 1
  45   22   53 1
  46   23   24 2
  47   23   54 1
  48   24   25 1
  49   24   55 1
  50   26   27 1
  51   26   28 am
  52   26   30 1
  53   28   29 2
  54   30   31 ar
  55   30   35 ar
  56   31   32 ar
  57   31   36 1
  58   32   33 ar
  59   32   56 1
  60   33   34 ar
  61   33   57 1
  62   34   35 ar
  63   34   58 1
  64   35   59 1

#	End of record

