#	Name: ASD01120280
#	Creating user name:	WinNT
#	Creation time:	15. 06. 2019 18:59

#	Modifying user name:	WinNT
#	Modification time:	15. 06. 2019 18:59

#	Program:	/corina/corina34_cracker 3.40 0067  02.08.2006

@<TRIPOS>MOLECULE
ASD01120280
  31   31    0    0    0
SMALL
NO_CHARGES


@<TRIPOS>ATOM
   1 O1             0.9475     1.7011    -0.5746 O.2     
   2 N2            -0.0139     1.2151    -0.0063 N.pl3   
   3 O3             0.0893     0.1373     0.5517 O.2     
   4 C4            -1.3060     1.9371     0.0115 C.ar    
   5 C5            -2.4909     1.2356    -0.0909 C.ar    
   6 C6            -3.6989     1.9088    -0.0744 C.ar    
   7 C7            -3.7248     3.2874     0.0446 C.ar    
   8 C8            -2.5423     3.9956     0.1475 C.ar    
   9 C9            -1.3277     3.3212     0.1370 C.ar    
  10 N10           -0.1314     4.0330     0.2412 N.pl3   
  11 N11           -0.1477     5.4339     0.2436 N.2     
  12 C12            0.9702     6.0990     0.3410 C.2     
  13 C13            0.9536     7.5171     0.3434 C.2     
  14 O14            1.9962     8.1373     0.4342 O.2     
  15 O15           -0.2184     8.1783     0.2451 O.3     
  16 C16           -0.1606     9.6061     0.2539 C.3     
  17 C17           -1.5760    10.1746     0.1345 C.3     
  18 C18            2.2792     5.3605     0.4508 C.3     
  19 Cl19          -5.2437     4.1278     0.0642 Cl      
  20 H20           -2.4743     0.1598    -0.1843 H       
  21 H21           -4.6240     1.3574    -0.1550 H       
  22 H22           -2.5626     5.0714     0.2404 H       
  23 H23            0.7112     3.5576     0.3119 H       
  24 H24            0.2899     9.9457     1.1866 H       
  25 H25            0.4415     9.9505    -0.5869 H       
  26 H26           -1.5318    11.2637     0.1413 H       
  27 H27           -2.0265     9.8350    -0.7981 H       
  28 H28           -2.1780     9.8302     0.9754 H       
  29 H29            2.6823     5.1852    -0.5466 H       
  30 H30            2.9854     5.9568     1.0285 H       
  31 H31            2.1167     4.4052     0.9500 H       
@<TRIPOS>BOND
   1    1    2 2
   2    2    3 2
   3    2    4 1
   4    4    5 ar
   5    4    9 ar
   6    5    6 ar
   7    5   20 1
   8    6    7 ar
   9    6   21 1
  10    7    8 ar
  11    7   19 1
  12    8    9 ar
  13    8   22 1
  14    9   10 1
  15   10   11 1
  16   10   23 1
  17   11   12 2
  18   12   13 1
  19   12   18 1
  20   13   14 2
  21   13   15 1
  22   15   16 1
  23   16   17 1
  24   16   24 1
  25   16   25 1
  26   17   26 1
  27   17   27 1
  28   17   28 1
  29   18   29 1
  30   18   30 1
  31   18   31 1

#	End of record

