#	Name: ASD02038802
#	Creating user name:	WinNT
#	Creation time:	15. 06. 2019 20:17

#	Modifying user name:	WinNT
#	Modification time:	15. 06. 2019 20:17

#	Program:	/corina/corina34_cracker 3.40 0067  02.08.2006

@<TRIPOS>MOLECULE
ASD02038802
  53   56    0    0    0
SMALL
NO_CHARGES


@<TRIPOS>ATOM
   1 C1            -1.3138    -1.0983     0.3327 C.2     
   2 C2            -0.1515    -0.1885     0.2425 C.2     
   3 N3             1.0922    -0.6938     0.1232 N.am    
   4 C4             1.3027    -2.1425     0.1791 C.3     
   5 C5             1.3694    -2.6949    -1.2214 C.ar    
   6 C6             2.2336     0.2056    -0.0626 C.3     
   7 O7            -0.3179     1.0152     0.2761 O.2     
   8 N8            -1.2693    -2.4430     0.3218 N.2     
   9 C9            -2.5013    -2.8732     0.4207 C.2     
  10 N10           -3.3047    -1.7959     0.4924 N.pl3   
  11 N11           -2.5731    -0.7363     0.4433 N.2     
  12 C12            2.5954    -2.9101    -1.8208 C.ar    
  13 C13            2.0065     1.0718    -1.3054 C.3     
  14 C14            3.1657     2.0617    -1.4466 C.3     
  15 O15            3.2595     2.8556    -0.2621 O.3     
  16 C16            3.5186     2.1037     0.9252 C.3     
  17 C17            2.3735     1.1154     1.1618 C.3     
  18 C18            0.2038    -2.9913    -1.9031 C.ar    
  19 C19            0.2614    -3.4987    -3.1883 C.ar    
  20 C20            1.4844    -3.7108    -3.7941 C.ar    
  21 C21            2.6561    -3.4187    -3.1102 C.ar    
  22 C22           -4.7645    -1.8232     0.6122 C.3     
  23 O23            3.8606    -3.6264    -3.7039 O.3     
  24 C24            3.8745    -4.2064    -4.9327 C.ar    
  25 C25            3.5402    -3.4632    -6.0558 C.ar    
  26 C26            4.2287    -5.5412    -5.0672 C.ar    
  27 C27            4.2426    -6.1282    -6.3176 C.ar    
  28 C28            3.9039    -5.3869    -7.4345 C.ar    
  29 C29            3.5557    -4.0551    -7.3038 C.ar    
  30 H30            2.2376    -2.3540     0.6980 H       
  31 H31            0.4762    -2.6094     0.7149 H       
  32 H32            3.1435    -0.3812    -0.1883 H       
  33 H33           -2.8164    -3.9061     0.4408 H       
  34 H34            3.5058    -2.6822    -1.2863 H       
  35 H35            1.9610     0.4356    -2.1893 H       
  36 H36            1.0701     1.6198    -1.2012 H       
  37 H37            4.0965     1.5132    -1.5912 H       
  38 H38            2.9881     2.7094    -2.3051 H       
  39 H39            4.4540     1.5558     0.8116 H       
  40 H40            3.5951     2.7816     1.7753 H       
  41 H41            1.4445     1.6644     1.3157 H       
  42 H42            2.5904     0.5106     2.0422 H       
  43 H43           -0.7535    -2.8265    -1.4311 H       
  44 H44           -0.6506    -3.7297    -3.7186 H       
  45 H45            1.5289    -4.1078    -4.7975 H       
  46 H46           -5.0425    -1.8354     1.6661 H       
  47 H47           -5.1848    -0.9375     0.1358 H       
  48 H48           -5.1524    -2.7171     0.1237 H       
  49 H49            3.2678    -2.4231    -5.9542 H       
  50 H50            4.4937    -6.1206    -4.1952 H       
  51 H51            4.5185    -7.1671    -6.4229 H       
  52 H52            3.9157    -5.8476    -8.4112 H       
  53 H53            3.2912    -3.4783    -8.1778 H       
@<TRIPOS>BOND
   1    1    2 1
   2    1    8 1
   3    1   11 2
   4    2    3 am
   5    2    7 2
   6    3    4 1
   7    3    6 1
   8    4    5 1
   9    4   30 1
  10    4   31 1
  11    5   12 ar
  12    5   18 ar
  13    6   13 1
  14    6   17 1
  15    6   32 1
  16    8    9 2
  17    9   10 1
  18    9   33 1
  19   10   11 1
  20   10   22 1
  21   12   21 ar
  22   12   34 1
  23   13   14 1
  24   13   35 1
  25   13   36 1
  26   14   15 1
  27   14   37 1
  28   14   38 1
  29   15   16 1
  30   16   17 1
  31   16   39 1
  32   16   40 1
  33   17   41 1
  34   17   42 1
  35   18   19 ar
  36   18   43 1
  37   19   20 ar
  38   19   44 1
  39   20   21 ar
  40   20   45 1
  41   21   23 1
  42   22   46 1
  43   22   47 1
  44   22   48 1
  45   23   24 1
  46   24   25 ar
  47   24   26 ar
  48   25   29 ar
  49   25   49 1
  50   26   27 ar
  51   26   50 1
  52   27   28 ar
  53   27   51 1
  54   28   29 ar
  55   28   52 1
  56   29   53 1

#	End of record

