#	Name: ASD03430379
#	Creating user name:	WinNT
#	Creation time:	15. 06. 2019 20:41

#	Modifying user name:	WinNT
#	Modification time:	15. 06. 2019 20:41

#	Program:	/corina/corina34_cracker 3.40 0067  02.08.2006

@<TRIPOS>MOLECULE
ASD03430379
  56   61    0    0    0
SMALL
NO_CHARGES


@<TRIPOS>ATOM
   1 N1            -0.0157     1.4932     0.4901 N.am    
   2 C2             0.0409     0.2263     0.9344 C.2     
   3 C3             1.4805    -0.0488     1.3137 C.3     
   4 C4             2.1942     1.2487     1.0117 C.ar    
   5 C5             3.5076     1.6466     1.1355 C.ar    
   6 C6             3.8773     2.9304     0.7696 C.ar    
   7 C7             2.9258     3.8070     0.2813 C.ar    
   8 C8             1.6104     3.4106     0.1570 C.ar    
   9 C9             1.2302     2.1205     0.5226 C.ar    
  10 O10           -0.8869    -0.5506     1.0164 O.2     
  11 O11            1.8010    -1.0817     6.8462 O.3     
  12 C12            0.8788    -0.1252     7.3951 C.3     
  13 C13            0.8557     0.9857     6.3186 C.3     
  14 C14            1.2473     0.2195     5.0697 C.ar    
  15 C15            1.7882    -0.9905     5.4879 C.ar    
  16 C16            2.2224    -1.9009     4.5293 C.ar    
  17 C17            2.1212    -1.5958     3.1826 C.ar    
  18 C18            1.5860    -0.3806     2.7799 C.ar    
  19 C19            1.1503     0.5250     3.7300 C.ar    
  20 O20            2.5480    -2.4893     2.2519 O.3     
  21 C21           -1.2434     2.1395     0.0197 C.3     
  22 C22           -0.9991     2.7578    -1.3327 C.ar    
  23 C23           -1.5151     4.0065    -1.6251 C.ar    
  24 C24           -1.2911     4.5737    -2.8657 C.ar    
  25 C25           -0.5507     3.8925    -3.8136 C.ar    
  26 C26           -0.0340     2.6442    -3.5209 C.ar    
  27 C27           -0.2543     2.0789    -2.2788 C.ar    
  28 C28           -2.3417     1.1133    -0.0881 C.ar    
  29 C29           -3.4804     1.2356     0.6860 C.ar    
  30 C30           -4.4879     0.2943     0.5871 C.ar    
  31 C31           -4.3569    -0.7692    -0.2863 C.ar    
  32 C32           -3.2186    -0.8910    -1.0611 C.ar    
  33 C33           -2.2130     0.0527    -0.9653 C.ar    
  34 Cl34           4.6968     0.5411     1.7498 Cl      
  35 H35            1.8871    -0.8584     0.7077 H       
  36 H36            4.9057     3.2459     0.8656 H       
  37 H37            3.2142     4.8079    -0.0040 H       
  38 H38            0.8733     4.1017    -0.2246 H       
  39 H39           -0.1103    -0.5673     7.5149 H       
  40 H40            1.2463     0.2646     8.3443 H       
  41 H41           -0.1432     1.4101     6.2181 H       
  42 H42            1.5865     1.7623     6.5444 H       
  43 H43            2.6396    -2.8485     4.8368 H       
  44 H44            0.7330     1.4721     3.4214 H       
  45 H45            1.8661    -3.1102     1.9610 H       
  46 H46           -1.5391     2.9153     0.7259 H       
  47 H47           -2.0935     4.5388    -0.8845 H       
  48 H48           -1.6948     5.5490    -3.0944 H       
  49 H49           -0.3762     4.3353    -4.7831 H       
  50 H50            0.5442     2.1118    -4.2616 H       
  51 H51            0.1525     1.1052    -2.0488 H       
  52 H52           -3.5828     2.0665     1.3683 H       
  53 H53           -5.3772     0.3895     1.1924 H       
  54 H54           -5.1437    -1.5050    -0.3630 H       
  55 H55           -3.1160    -1.7221    -1.7432 H       
  56 H56           -1.3253    -0.0405    -1.5733 H       
@<TRIPOS>BOND
   1    1    2 am
   2    1    9 1
   3    1   21 1
   4    2    3 1
   5    2   10 2
   6    3    4 1
   7    3   18 1
   8    3   35 1
   9    4    5 ar
  10    4    9 ar
  11    5    6 ar
  12    5   34 1
  13    6    7 ar
  14    6   36 1
  15    7    8 ar
  16    7   37 1
  17    8    9 ar
  18    8   38 1
  19   11   12 1
  20   11   15 1
  21   12   13 1
  22   12   39 1
  23   12   40 1
  24   13   14 1
  25   13   41 1
  26   13   42 1
  27   14   15 ar
  28   14   19 ar
  29   15   16 ar
  30   16   17 ar
  31   16   43 1
  32   17   18 ar
  33   17   20 1
  34   18   19 ar
  35   19   44 1
  36   20   45 1
  37   21   22 1
  38   21   28 1
  39   21   46 1
  40   22   23 ar
  41   22   27 ar
  42   23   24 ar
  43   23   47 1
  44   24   25 ar
  45   24   48 1
  46   25   26 ar
  47   25   49 1
  48   26   27 ar
  49   26   50 1
  50   27   51 1
  51   28   29 ar
  52   28   33 ar
  53   29   30 ar
  54   29   52 1
  55   30   31 ar
  56   30   53 1
  57   31   32 ar
  58   31   54 1
  59   32   33 ar
  60   32   55 1
  61   33   56 1

#	End of record

