#	Name: ASD08830078
#	Creating user name:	WinNT
#	Creation time:	15. 06. 2019 21:19

#	Modifying user name:	WinNT
#	Modification time:	15. 06. 2019 21:19

#	Program:	/corina/corina34_cracker 3.40 0067  02.08.2006

@<TRIPOS>MOLECULE
ASD08830078
  44   46    0    0    0
SMALL
NO_CHARGES


@<TRIPOS>ATOM
   1 C1            -0.0179     1.4664     0.0101 C.ar    
   2 C2             0.0021    -0.0041     0.0020 C.2     
   3 C3            -1.2926    -0.7753     0.0102 C.3     
   4 C4            -0.9927    -2.2755    -0.0007 C.3     
   5 N5            -2.2513    -3.0252     0.0073 N.pl3   
   6 O6             1.0604    -0.5961    -0.0113 O.2     
   7 C7             1.1774     2.1721     0.0025 C.ar    
   8 C8             1.1498     3.5742     0.0103 C.ar    
   9 C9            -0.0981     4.2488     0.0258 C.ar    
  10 C10           -1.2933     3.5050     0.0332 C.ar    
  11 C11           -1.2503     2.1495     0.0197 C.ar    
  12 C12            2.3394     4.3244     0.0035 C.ar    
  13 C13            2.2783     5.6843     0.0118 C.ar    
  14 C14            1.0525     6.3463     0.0274 C.ar    
  15 C15           -0.1196     5.6527     0.0339 C.ar    
  16 C16           -2.8685    -3.4069     1.2800 C.3     
  17 C17           -2.8628    -3.3761    -1.1984 C.ar    
  18 C18           -4.0563    -4.0870    -1.1927 C.ar    
  19 C19           -4.6585    -4.4319    -2.3866 C.ar    
  20 C20           -4.0748    -4.0704    -3.5870 C.ar    
  21 C21           -2.8868    -3.3627    -3.5964 C.ar    
  22 C22           -2.2820    -3.0100    -2.4060 C.ar    
  23 C23           -4.7347    -4.4490    -4.8879 C.3     
  24 F24           -5.6141    -3.4332    -5.2777 F       
  25 F25           -3.7570    -4.6229    -5.8734 F       
  26 F26           -5.4454    -5.6423    -4.7204 F       
  27 H27           -1.8592    -0.5245     0.9070 H       
  28 H28           -1.8762    -0.5150    -0.8728 H       
  29 H29           -0.4261    -2.5263    -0.8975 H       
  30 H30           -0.4091    -2.5358     0.8824 H       
  31 H31            2.1205     1.6460    -0.0090 H       
  32 H32           -2.2456     4.0144     0.0450 H       
  33 H33           -2.1719     1.5866     0.0252 H       
  34 H34            3.2965     3.8242    -0.0079 H       
  35 H35            3.1931     6.2583     0.0065 H       
  36 H36            1.0314     7.4261     0.0344 H       
  37 H37           -1.0618     6.1804     0.0456 H       
  38 H38           -3.5474    -2.6186     1.6053 H       
  39 H39           -3.4251    -4.3350     1.1499 H       
  40 H40           -2.0922    -3.5509     2.0315 H       
  41 H41           -4.5125    -4.3699    -0.2555 H       
  42 H42           -5.5862    -4.9848    -2.3829 H       
  43 H43           -2.4336    -3.0820    -4.5356 H       
  44 H44           -1.3543    -2.4570    -2.4140 H       
@<TRIPOS>BOND
   1    1    2 1
   2    1    7 ar
   3    1   11 ar
   4    2    3 1
   5    2    6 2
   6    3    4 1
   7    3   27 1
   8    3   28 1
   9    4    5 1
  10    4   29 1
  11    4   30 1
  12    5   17 1
  13    5   16 1
  14    7    8 ar
  15    7   31 1
  16    8    9 ar
  17    8   12 ar
  18    9   10 ar
  19    9   15 ar
  20   10   11 ar
  21   10   32 1
  22   11   33 1
  23   12   13 ar
  24   12   34 1
  25   13   14 ar
  26   13   35 1
  27   14   15 ar
  28   14   36 1
  29   15   37 1
  30   16   38 1
  31   16   39 1
  32   16   40 1
  33   17   18 ar
  34   17   22 ar
  35   18   19 ar
  36   18   41 1
  37   19   20 ar
  38   19   42 1
  39   20   21 ar
  40   20   23 1
  41   21   22 ar
  42   21   43 1
  43   22   44 1
  44   23   24 1
  45   23   25 1
  46   23   26 1

#	End of record

