#	Name: ASD01940507
#	Creating user name:	WinNT
#	Creation time:	15. 06. 2019 20:12

#	Modifying user name:	WinNT
#	Modification time:	15. 06. 2019 20:12

#	Program:	/corina/corina34_cracker 3.40 0067  02.08.2006

@<TRIPOS>MOLECULE
ASD01940507
  48   50    0    0    0
SMALL
NO_CHARGES


@<TRIPOS>ATOM
   1 C1            -0.0165     1.3629     0.0095 C.ar    
   2 C2             0.0021    -0.0041     0.0020 C.ar    
   3 C3             1.2121    -0.6923    -0.0132 C.ar    
   4 C4             2.4155    -0.0012    -0.0210 C.ar    
   5 C5             2.4104     1.3815    -0.0135 C.ar    
   6 C6             1.1850     2.0700     0.0019 C.ar    
   7 C7             1.2135     3.5430     0.0100 C.2     
   8 O8             3.5630     2.0912    -0.0212 O.3     
   9 C9             3.5534     3.4322    -0.0143 C.2     
  10 N10            2.4202     4.1525     0.0022 N.am    
  11 O11            0.1840     4.1901     0.0229 O.2     
  12 O12            4.6162     4.0209    -0.0217 O.2     
  13 C13            2.4924     5.6157     0.0098 C.3     
  14 C14            2.5305     6.1093     1.4332 C.ar    
  15 C15            3.7183     6.0866     2.1408 C.ar    
  16 C16            1.3787     6.5900     2.0288 C.ar    
  17 C17            1.4094     7.0447     3.3343 C.ar    
  18 C18            2.5915     7.0206     4.0490 C.ar    
  19 C19            3.7514     6.5430     3.4541 C.ar    
  20 O20            1.2149    -2.0494    -0.0201 O.3     
  21 S21            1.2026    -2.6615    -1.4136 S.o     
  22 O22            2.5226    -2.4193    -1.8807 O.2     
  23 F23            4.8446     5.6215     1.5575 F       
  24 N24            4.9506     6.5223     4.1733 N.am    
  25 S25            4.9357     6.2075     5.7990 S.o     
  26 O26            4.6601     4.8145     5.8524 O.2     
  27 O27            6.4087     6.2798     6.1753 O.3     
  28 N28            6.6737     6.0327     7.5927 N.3     
  29 S29            8.4010     6.1353     7.9406 S.3     
  30 O30            1.2085    -4.1569    -1.1307 O.3     
  31 C31            1.1988    -4.9707    -2.3054 C.3     
  32 C32            1.2058    -6.4469    -1.9032 C.3     
  33 H33           -0.9576     1.8926     0.0169 H       
  34 H34           -0.9277    -0.5534     0.0083 H       
  35 H35            3.3511    -0.5405    -0.0325 H       
  36 H36            3.3944     5.9377    -0.5106 H       
  37 H37            1.6166     6.0253    -0.4935 H       
  38 H38            0.4530     6.6106     1.4729 H       
  39 H39            0.5079     7.4197     3.7959 H       
  40 H40            2.6140     7.3764     5.0684 H       
  41 H41            5.7911     6.6923     3.7199 H       
  42 H42            6.1492     6.6684     8.1748 H       
  43 H43            8.4590     5.8866     9.2611 H       
  44 H44            0.3026    -4.7570    -2.8879 H       
  45 H45            2.0825    -4.7533    -2.9053 H       
  46 H46            1.1984    -7.0675    -2.7992 H       
  47 H47            2.1019    -6.6605    -1.3206 H       
  48 H48            0.3220    -6.6642    -1.3033 H       
@<TRIPOS>BOND
   1    1    2 ar
   2    1    6 ar
   3    1   33 1
   4    2    3 ar
   5    2   34 1
   6    3    4 ar
   7    3   20 1
   8    4    5 ar
   9    4   35 1
  10    5    6 ar
  11    5    8 1
  12    6    7 1
  13    7   10 am
  14    7   11 2
  15    8    9 1
  16    9   10 am
  17    9   12 2
  18   10   13 1
  19   13   14 1
  20   13   36 1
  21   13   37 1
  22   14   16 ar
  23   14   15 ar
  24   15   19 ar
  25   15   23 1
  26   16   17 ar
  27   16   38 1
  28   17   18 ar
  29   17   39 1
  30   18   19 ar
  31   18   40 1
  32   19   24 1
  33   20   21 1
  34   21   22 2
  35   21   30 1
  36   24   25 am
  37   24   41 1
  38   25   26 2
  39   25   27 1
  40   27   28 1
  41   28   29 1
  42   28   42 1
  43   29   43 1
  44   30   31 1
  45   31   32 1
  46   31   44 1
  47   31   45 1
  48   32   46 1
  49   32   47 1
  50   32   48 1

#	End of record

