#	Name: ASD05213041
#	Creating user name:	WinNT
#	Creation time:	15. 06. 2019 20:57

#	Modifying user name:	WinNT
#	Modification time:	15. 06. 2019 20:57

#	Program:	/corina/corina34_cracker 3.40 0067  02.08.2006

@<TRIPOS>MOLECULE
ASD05213041
  34   37    0    0    0
SMALL
NO_CHARGES


@<TRIPOS>ATOM
   1 S1             0.0585     1.7380    -0.6681 S.3     
   2 C2             0.0918    -0.0236    -0.6513 C.2     
   3 N3            -0.9238    -0.7814    -0.8890 N.2     
   4 C4            -0.7402    -2.1157    -0.8386 C.ar    
   5 C5             0.5745    -2.4721    -0.5241 C.ar    
   6 S6             1.5163    -0.9976    -0.3154 S.3     
   7 C7            -1.6805    -3.1450    -1.0578 C.ar    
   8 C8            -1.3055    -4.4611    -0.9622 C.ar    
   9 C9             0.0033    -4.8018    -0.6492 C.ar    
  10 C10            0.9383    -3.8132    -0.4308 C.ar    
  11 C11            1.7406     2.0795    -0.2698 C.2     
  12 N12            2.3078     3.3155    -0.1411 N.pl3   
  13 C13            3.6265     3.0877     0.1742 C.2     
  14 N14            3.7923     1.7859     0.2205 N.2     
  15 N15            2.6813     1.1931    -0.0357 N.2     
  16 C16            4.6621     4.1145     0.4155 C.ar    
  17 Cl17           0.4617    -6.4721    -0.5317 Cl      
  18 C18            1.6483     4.6134    -0.3050 C.3     
  19 C19            4.3947     5.1952     1.2569 C.ar    
  20 C20            5.3651     6.1504     1.4783 C.ar    
  21 C21            6.6028     6.0393     0.8675 C.ar    
  22 C22            6.8752     4.9697     0.0314 C.ar    
  23 C23            5.9147     4.0040    -0.1933 C.ar    
  24 Cl24           6.2576     2.6631    -1.2412 Cl      
  25 Cl25           7.8179     7.2464     1.1508 Cl      
  26 H26           -2.7023    -2.8948    -1.3021 H       
  27 H27           -2.0351    -5.2392    -1.1317 H       
  28 H28            1.9563    -4.0792    -0.1873 H       
  29 H29            1.3255     4.9823     0.6685 H       
  30 H30            2.3471     5.3225    -0.7488 H       
  31 H31            0.7818     4.5009    -0.9566 H       
  32 H32            3.4296     5.2838     1.7335 H       
  33 H33            5.1588     6.9871     2.1293 H       
  34 H34            7.8425     4.8884    -0.4421 H       
@<TRIPOS>BOND
   1    1    2 1
   2    1   11 1
   3    2    3 2
   4    2    6 1
   5    3    4 1
   6    4    5 ar
   7    4    7 ar
   8    5    6 1
   9    5   10 ar
  10    7    8 ar
  11    7   26 1
  12    8    9 ar
  13    8   27 1
  14    9   10 ar
  15    9   17 1
  16   10   28 1
  17   11   12 1
  18   11   15 2
  19   12   13 1
  20   12   18 1
  21   13   14 2
  22   13   16 1
  23   14   15 1
  24   16   19 ar
  25   16   23 ar
  26   18   29 1
  27   18   30 1
  28   18   31 1
  29   19   20 ar
  30   19   32 1
  31   20   21 ar
  32   20   33 1
  33   21   22 ar
  34   21   25 1
  35   22   23 ar
  36   22   34 1
  37   23   24 1

#	End of record

