#	Name: ASD08710036
#	Creating user name:	WinNT
#	Creation time:	15. 06. 2019 21:19

#	Modifying user name:	WinNT
#	Modification time:	15. 06. 2019 21:19

#	Program:	/corina/corina34_cracker 3.40 0067  02.08.2006

@<TRIPOS>MOLECULE
ASD08710036
  47   49    0    0    0
SMALL
NO_CHARGES


@<TRIPOS>ATOM
   1 C1            -0.5239    -1.8873    -2.7787 C.ar    
   2 C2            -0.3384    -3.0524    -2.0639 C.ar    
   3 C3             0.5786    -1.1089    -3.1371 C.ar    
   4 C4             1.8623    -1.5165    -2.7688 C.ar    
   5 C5             2.0333    -2.6839    -2.0540 C.ar    
   6 C6             0.9364    -3.4504    -1.7022 C.ar    
   7 S7             1.1641    -4.9398    -0.7887 S.o2    
   8 O8             0.0264    -5.7496    -1.0516 O.2     
   9 O9             2.4961    -5.3655    -1.0409 O.2     
  10 N10            1.0957    -4.5447     0.8180 N.am    
  11 C11           -0.1853    -4.5607     1.5383 C.3     
  12 C12            2.3157    -4.1778     1.5507 C.3     
  13 C13            2.4472    -5.0940     2.7736 C.3     
  14 N14            1.1655    -5.1046     3.4925 N.am    
  15 C15           -0.0485    -5.4761     2.7613 C.3     
  16 C16            1.1099    -4.7839     4.8004 C.2     
  17 C17           -0.1993    -4.6555     5.4751 C.ar    
  18 O18            2.1363    -4.6003     5.4253 O.2     
  19 C19           -1.3166    -4.1984     4.7748 C.ar    
  20 N20           -2.4826    -4.0840     5.3755 N.ar    
  21 C21           -2.6441    -4.3926     6.6483 C.ar    
  22 C22           -1.5862    -4.8526     7.4112 C.ar    
  23 C23           -0.3405    -4.9959     6.8255 C.ar    
  24 C24           -4.0034    -4.2408     7.2810 C.3     
  25 C25            3.5485    -4.5657     3.6950 C.3     
  26 C26            0.3936     0.1015    -3.8795 C.1     
  27 N27            0.2468     1.0618    -4.4685 N.1     
  28 H28           -1.5191    -1.5801    -3.0643 H       
  29 H29           -1.1902    -3.6553    -1.7857 H       
  30 H30            2.7193    -0.9193    -3.0431 H       
  31 H31            3.0257    -3.0005    -1.7688 H       
  32 H32           -0.4347    -3.5506     1.8635 H       
  33 H33           -0.9689    -4.9406     0.8828 H       
  34 H34            3.1834    -4.3050     0.9033 H       
  35 H35            2.2484    -3.1399     1.8767 H       
  36 H36            2.6926    -6.1051     2.4485 H       
  37 H37           -0.9176    -5.3489     3.4066 H       
  38 H38            0.0221    -6.5150     2.4390 H       
  39 H39           -1.2239    -3.9359     3.7313 H       
  40 H40           -1.7317    -5.1014     8.4521 H       
  41 H41            0.5029    -5.3530     7.3978 H       
  42 H42           -4.5617    -5.1703     7.1701 H       
  43 H43           -3.8875    -4.0108     8.3402 H       
  44 H44           -4.5442    -3.4314     6.7905 H       
  45 H45            3.2479    -3.6013     4.1046 H       
  46 H46            3.7105    -5.2717     4.5094 H       
  47 H47            4.4715    -4.4476     3.1274 H       
@<TRIPOS>BOND
   1    1    2 ar
   2    1    3 ar
   3    1   28 1
   4    2    6 ar
   5    2   29 1
   6    3    4 ar
   7    3   26 1
   8    4    5 ar
   9    4   30 1
  10    5    6 ar
  11    5   31 1
  12    6    7 1
  13    7    8 2
  14    7    9 2
  15    7   10 am
  16   10   11 1
  17   10   12 1
  18   11   15 1
  19   11   32 1
  20   11   33 1
  21   12   13 1
  22   12   34 1
  23   12   35 1
  24   13   14 1
  25   13   25 1
  26   13   36 1
  27   14   15 1
  28   14   16 am
  29   15   37 1
  30   15   38 1
  31   16   17 1
  32   16   18 2
  33   17   19 ar
  34   17   23 ar
  35   19   20 ar
  36   19   39 1
  37   20   21 ar
  38   21   22 ar
  39   21   24 1
  40   22   23 ar
  41   22   40 1
  42   23   41 1
  43   24   42 1
  44   24   43 1
  45   24   44 1
  46   25   45 1
  47   25   46 1
  48   25   47 1
  49   26   27 3

#	End of record

