#	Name: ASD01915532
#	Creating user name:	WinNT
#	Creation time:	15. 06. 2019 20:05

#	Modifying user name:	WinNT
#	Modification time:	15. 06. 2019 20:05

#	Program:	/corina/corina34_cracker 3.40 0067  02.08.2006

@<TRIPOS>MOLECULE
ASD01915532
  42   45    0    0    0
SMALL
NO_CHARGES


@<TRIPOS>ATOM
   1 C1            -0.0042     1.4680     0.2327 C.2     
   2 N2             0.0657     0.1181    -0.0300 N.pl3   
   3 C3            -1.1438    -0.6649    -0.3104 C.3     
   4 C4            -2.3282    -0.0483     0.4320 C.3     
   5 N5            -2.4044     1.3988     0.2637 N.am    
   6 C6            -1.2933     2.1740     0.2840 C.2     
   7 C7             1.2765     1.9054     0.4219 C.2     
   8 C8             2.0757     0.7641     0.2709 C.2     
   9 N9             1.2859    -0.2515     0.0105 N.2     
  10 C10            3.5774     0.7121     0.3867 C.3     
  11 O11            4.0782     2.0184     0.6779 O.3     
  12 C12            5.4242     2.1467     0.8151 C.ar    
  13 C13           -3.6536     1.9999     0.0767 C.ar    
  14 O14           -1.3585     3.3873     0.3418 O.2     
  15 C15            5.9787     3.3864     1.0981 C.ar    
  16 C16            6.2455     1.0370     0.6779 C.ar    
  17 C17            7.6134     1.1701     0.8178 C.ar    
  18 C18            8.1640     2.4079     1.0942 C.ar    
  19 C19            7.3472     3.5142     1.2370 C.ar    
  20 C20           -4.6007     2.0122     1.0975 C.ar    
  21 N21           -5.7700     2.5913     0.8808 N.ar    
  22 C22           -6.0431     3.1507    -0.2809 C.ar    
  23 N23           -5.1741     3.1597    -1.2718 N.ar    
  24 C24           -3.9805     2.6068    -1.1333 C.ar    
  25 C25           -7.3887     3.7988    -0.4822 C.3     
  26 H26           -1.3421    -0.6568    -1.3822 H       
  27 H27           -0.9985    -1.6917     0.0255 H       
  28 H28           -3.2494    -0.4954     0.0584 H       
  29 H29           -2.2347    -0.2749     1.4941 H       
  30 H30            1.6021     2.9118     0.6399 H       
  31 H31            3.8565     0.0288     1.1888 H       
  32 H32            4.0023     0.3613    -0.5538 H       
  33 H33            5.3411     4.2510     1.2094 H       
  34 H34            5.8158     0.0699     0.4623 H       
  35 H35            8.2531     0.3065     0.7114 H       
  36 H36            9.2337     2.5098     1.2032 H       
  37 H37            7.7797     4.4801     1.4526 H       
  38 H38           -4.3839     1.5554     2.0518 H       
  39 H39           -3.2734     2.6179    -1.9496 H       
  40 H40           -7.3342     4.8475    -0.1900 H       
  41 H41           -7.6723     3.7285    -1.5323 H       
  42 H42           -8.1326     3.2892     0.1300 H       
@<TRIPOS>BOND
   1    1    2 1
   2    1    7 2
   3    1    6 1
   4    2    3 1
   5    2    9 1
   6    3    4 1
   7    3   26 1
   8    3   27 1
   9    4    5 1
  10    4   28 1
  11    4   29 1
  12    5    6 am
  13    5   13 1
  14    6   14 2
  15    7    8 1
  16    7   30 1
  17    8    9 2
  18    8   10 1
  19   10   11 1
  20   10   31 1
  21   10   32 1
  22   11   12 1
  23   12   15 ar
  24   12   16 ar
  25   13   20 ar
  26   13   24 ar
  27   15   19 ar
  28   15   33 1
  29   16   17 ar
  30   16   34 1
  31   17   18 ar
  32   17   35 1
  33   18   19 ar
  34   18   36 1
  35   19   37 1
  36   20   21 ar
  37   20   38 1
  38   21   22 ar
  39   22   23 ar
  40   22   25 1
  41   23   24 ar
  42   24   39 1
  43   25   40 1
  44   25   41 1
  45   25   42 1

#	End of record

