#	Name: ASD01811590
#	Creating user name:	WinNT
#	Creation time:	15. 06. 2019 19:27

#	Modifying user name:	WinNT
#	Modification time:	15. 06. 2019 19:27

#	Program:	/corina/corina34_cracker 3.40 0067  02.08.2006

@<TRIPOS>MOLECULE
ASD01811590
  67   71    0    0    0
SMALL
NO_CHARGES


@<TRIPOS>ATOM
   1 C1            -0.2583     1.3053     0.3512 C.ar    
   2 C2            -0.2595    -0.0500     0.0450 C.ar    
   3 C3            -1.4441    -0.6928    -0.2632 C.ar    
   4 C4            -2.6331     0.0073    -0.2688 C.ar    
   5 C5            -2.6426     1.3693     0.0378 C.ar    
   6 C6            -1.4483     2.0164     0.3539 C.ar    
   7 C7             1.0348    -0.8218     0.0485 C.3     
   8 C8            -3.9152     2.1221     0.0321 C.2     
   9 O9            -3.9585     3.2390    -0.4456 O.2     
  10 N10           -5.0272     1.5699     0.5564 N.am    
  11 C11           -6.2768     2.3384     0.6387 C.3     
  12 C12           -6.7737     2.3162     2.0882 C.3     
  13 C13           -6.8793     0.8707     2.5660 C.3     
  14 C14           -5.5191     0.1822     2.5026 C.3     
  15 C15           -5.0138     0.1863     1.0507 C.3     
  16 C16           -7.4251     0.8245     3.9742 C.ar    
  17 C17           -8.7665     0.4806     3.9401 C.ar    
  18 C18           -9.2056     0.2749     2.5055 C.3     
  19 C19           -7.8978     0.1048     1.7023 C.3     
  20 C20           -6.8008     1.0641     5.1886 C.ar    
  21 C21           -7.5058     0.9629     6.3685 C.ar    
  22 C22           -8.8580     0.6166     6.3408 C.ar    
  23 C23           -9.4829     0.3758     5.1168 C.ar    
  24 C24           -9.5991     0.5086     7.5614 C.1     
  25 N25          -10.1869     0.4230     8.5297 N.1     
  26 N26            0.9438     1.9514     0.6625 N.am    
  27 C27            0.9327     3.0688     1.4161 C.2     
  28 O28           -0.1077     3.4589     1.9096 O.2     
  29 N29            2.0750     3.7537     1.6225 N.am    
  30 C30            2.0630     4.9682     2.4416 C.3     
  31 C31            3.4773     5.5470     2.5162 C.3     
  32 O32            3.8830     6.0072     1.2218 O.3     
  33 C33            4.1225     7.4231     1.2573 C.3     
  34 C34            4.4536     7.7404     2.7374 C.3     
  35 C35            3.4969     6.7608     3.4701 C.3     
  36 H36           -1.4388    -1.7463    -0.5007 H       
  37 H37           -3.5563    -0.4982    -0.5108 H       
  38 H38           -1.4495     3.0698     0.5923 H       
  39 H39            1.2105    -1.2322     1.0429 H       
  40 H40            0.9749    -1.6350    -0.6748 H       
  41 H41            1.8553    -0.1564    -0.2201 H       
  42 H42           -6.0938     3.3678     0.3307 H       
  43 H43           -7.0266     1.8877    -0.0116 H       
  44 H44           -6.0712     2.8580     2.7216 H       
  45 H45           -7.7537     2.7901     2.1439 H       
  46 H46           -4.8118     0.7154     3.1379 H       
  47 H47           -5.6158    -0.8465     2.8496 H       
  48 H48           -5.6652    -0.4342     0.4353 H       
  49 H49           -3.9961    -0.2028     1.0168 H       
  50 H50           -9.8195    -0.6220     2.4229 H       
  51 H51           -9.7570     1.1455     2.1503 H       
  52 H52           -7.9875     0.5580     0.7151 H       
  53 H53           -7.6254    -0.9477     1.6235 H       
  54 H54           -5.7546     1.3314     5.2103 H       
  55 H55           -7.0140     1.1512     7.3114 H       
  56 H56          -10.5286     0.1073     5.0890 H       
  57 H57            1.7847     1.5949     0.3360 H       
  58 H58            2.9050     3.4424     1.2287 H       
  59 H59            1.3933     5.7022     1.9934 H       
  60 H60            1.7162     4.7256     3.4461 H       
  61 H61            4.1705     4.7846     2.8716 H       
  62 H62            4.9666     7.6801     0.6173 H       
  63 H63            3.2304     7.9657     0.9445 H       
  64 H64            5.4957     7.5149     2.9639 H       
  65 H65            4.2162     8.7763     2.9796 H       
  66 H66            2.5009     7.1925     3.5690 H       
  67 H67            3.8986     6.4821     4.4443 H       
@<TRIPOS>BOND
   1    1    2 ar
   2    1   26 1
   3    1    6 ar
   4    2    3 ar
   5    2    7 1
   6    3    4 ar
   7    3   36 1
   8    4    5 ar
   9    4   37 1
  10    5    6 ar
  11    5    8 1
  12    6   38 1
  13    7   39 1
  14    7   40 1
  15    7   41 1
  16    8    9 2
  17    8   10 am
  18   10   11 1
  19   10   15 1
  20   11   12 1
  21   11   42 1
  22   11   43 1
  23   12   13 1
  24   12   44 1
  25   12   45 1
  26   13   14 1
  27   13   16 1
  28   13   19 1
  29   14   15 1
  30   14   46 1
  31   14   47 1
  32   15   48 1
  33   15   49 1
  34   16   17 ar
  35   16   20 ar
  36   17   18 1
  37   17   23 ar
  38   18   19 1
  39   18   50 1
  40   18   51 1
  41   19   52 1
  42   19   53 1
  43   20   21 ar
  44   20   54 1
  45   21   22 ar
  46   21   55 1
  47   22   23 ar
  48   22   24 1
  49   23   56 1
  50   24   25 3
  51   26   27 am
  52   26   57 1
  53   27   28 2
  54   27   29 am
  55   29   30 1
  56   29   58 1
  57   30   31 1
  58   30   59 1
  59   30   60 1
  60   31   32 1
  61   31   35 1
  62   31   61 1
  63   32   33 1
  64   33   34 1
  65   33   62 1
  66   33   63 1
  67   34   35 1
  68   34   64 1
  69   34   65 1
  70   35   66 1
  71   35   67 1

#	End of record

