#	Name: ASD03430140
#	Creating user name:	WinNT
#	Creation time:	15. 06. 2019 20:40

#	Modifying user name:	WinNT
#	Modification time:	15. 06. 2019 20:40

#	Program:	/corina/corina34_cracker 3.40 0067  02.08.2006

@<TRIPOS>MOLECULE
ASD03430140
  60   64    0    0    0
SMALL
NO_CHARGES


@<TRIPOS>ATOM
   1 C1            -0.0166     1.3734     0.0096 C.ar    
   2 C2             0.0021    -0.0041     0.0020 C.ar    
   3 C3             1.2047    -0.6792    -0.0032 C.ar    
   4 C4             2.4071     0.0229     0.0082 C.ar    
   5 C5             2.3795     1.4121     0.0050 C.ar    
   6 C6             1.1702     2.0967     0.0021 C.ar    
   7 O7             3.4737    -0.8263     0.0364 O.3     
   8 C8             1.5610    -2.1407    -0.0313 C.3     
   9 C9             3.0518    -2.1329    -0.3990 C.3     
  10 C10            0.4415    -3.8680     1.0077 C.ar    
  11 C11            1.3128    -2.8173     1.2838 C.ar    
  12 C12            0.7475    -2.9072    -1.0344 C.2     
  13 N13            0.1319    -3.8945    -0.3543 N.am    
  14 O14            0.6609    -2.6816    -2.2229 O.2     
  15 C15            1.7539    -2.5933     2.5690 C.ar    
  16 C16            1.3342    -3.4155     3.5996 C.ar    
  17 C17            0.4709    -4.4635     3.3363 C.ar    
  18 C18            0.0258    -4.6918     2.0510 C.ar    
  19 C19           -1.1508     2.3790     0.0370 C.3     
  20 C20           -0.4153     3.6813     0.4327 C.3     
  21 O21            0.9282     3.4370    -0.0165 O.3     
  22 C22           -0.7588    -4.8806    -0.9713 C.3     
  23 C23           -2.1957    -4.3557    -0.9469 C.3     
  24 C24           -3.1259    -5.3854    -1.5913 C.3     
  25 N25           -4.5055    -4.8815    -1.5678 N.3     
  26 C26           -5.4289    -5.8463    -2.1799 C.3     
  27 C27           -6.8525    -5.2875    -2.1369 C.3     
  28 C28           -7.8142    -6.2923    -2.7744 C.3     
  29 C29           -7.8541    -7.5670    -1.9291 C.3     
  30 C30           -9.2159    -5.6829    -2.8445 C.3     
  31 H31           -0.9262    -0.5560     0.0005 H       
  32 H32            3.3071     1.9654     0.0053 H       
  33 H33            3.1857    -2.2442    -1.4750 H       
  34 H34            3.5879    -2.9129     0.1416 H       
  35 H35            2.4281    -1.7745     2.7728 H       
  36 H36            1.6803    -3.2396     4.6074 H       
  37 H37            0.1443    -5.1061     4.1405 H       
  38 H38           -0.6483    -5.5120     1.8529 H       
  39 H39           -1.6102     2.4748    -0.9468 H       
  40 H40           -1.8936     2.1079     0.7873 H       
  41 H41           -0.8451     4.5397    -0.0837 H       
  42 H42           -0.4410     3.8264     1.5127 H       
  43 H43           -0.4520    -5.0517    -2.0032 H       
  44 H44           -0.7045    -5.8169    -0.4160 H       
  45 H45           -2.5025    -4.1845     0.0850 H       
  46 H46           -2.2500    -3.4193    -1.5022 H       
  47 H47           -2.8191    -5.5566    -2.6231 H       
  48 H48           -3.0716    -6.3218    -1.0360 H       
  49 H49           -4.7914    -4.6539    -0.6273 H       
  50 H50           -5.1381    -6.0206    -3.2158 H       
  51 H51           -5.3906    -6.7858    -1.6286 H       
  52 H52           -7.1433    -5.1131    -1.1010 H       
  53 H53           -6.8908    -4.3479    -2.6881 H       
  54 H54           -7.4725    -6.5342    -3.7807 H       
  55 H55           -8.1959    -7.3250    -0.9227 H       
  56 H56           -8.5392    -8.2828    -2.3832 H       
  57 H57           -6.8555    -8.0011    -1.8791 H       
  58 H58           -9.1875    -4.7748    -3.4467 H       
  59 H59           -9.9010    -6.3987    -3.2987 H       
  60 H60           -9.5577    -5.4409    -1.8382 H       
@<TRIPOS>BOND
   1    1    2 ar
   2    1    6 ar
   3    1   19 1
   4    2    3 ar
   5    2   31 1
   6    3    4 ar
   7    3    8 1
   8    4    5 ar
   9    4    7 1
  10    5    6 ar
  11    5   32 1
  12    6   21 1
  13    7    9 1
  14    8    9 1
  15    8   11 1
  16    8   12 1
  17    9   33 1
  18    9   34 1
  19   10   11 ar
  20   10   13 1
  21   10   18 ar
  22   11   15 ar
  23   12   13 am
  24   12   14 2
  25   13   22 1
  26   15   16 ar
  27   15   35 1
  28   16   17 ar
  29   16   36 1
  30   17   18 ar
  31   17   37 1
  32   18   38 1
  33   19   20 1
  34   19   39 1
  35   19   40 1
  36   20   21 1
  37   20   41 1
  38   20   42 1
  39   22   23 1
  40   22   43 1
  41   22   44 1
  42   23   24 1
  43   23   45 1
  44   23   46 1
  45   24   25 1
  46   24   47 1
  47   24   48 1
  48   25   26 1
  49   25   49 1
  50   26   27 1
  51   26   50 1
  52   26   51 1
  53   27   28 1
  54   27   52 1
  55   27   53 1
  56   28   29 1
  57   28   30 1
  58   28   54 1
  59   29   55 1
  60   29   56 1
  61   29   57 1
  62   30   58 1
  63   30   59 1
  64   30   60 1

#	End of record

