#	Name: ASD01885246
#	Creating user name:	WinNT
#	Creation time:	15. 06. 2019 19:49

#	Modifying user name:	WinNT
#	Modification time:	15. 06. 2019 19:49

#	Program:	/corina/corina34_cracker 3.40 0067  02.08.2006

@<TRIPOS>MOLECULE
ASD01885246
  55   59    0    0    0
SMALL
NO_CHARGES


@<TRIPOS>ATOM
   1 C1            -0.7118     0.8743    -0.9545 C.2     
   2 C2             0.7982    -0.6696     0.0653 C.2     
   3 C3             1.7110     0.3848     0.2399 C.2     
   4 C4             1.4015     1.6309    -0.1758 C.2     
   5 N5             0.2005     1.8842    -0.7703 N.pl3   
   6 C6            -0.3778     3.0057    -1.2792 C.2     
   7 N7            -1.5574     2.6689    -1.7331 N.2     
   8 N8            -1.7633     1.4118    -1.5511 N.2     
   9 C9             0.2295     4.3845    -1.3130 C.3     
  10 C10            1.1494    -2.0590     0.5315 C.3     
  11 C11            1.0141     4.5645    -2.6141 C.3     
  12 N12            2.0224    -2.7020    -0.4596 N.3     
  13 C13            2.1703    -4.1369    -0.1790 C.3     
  14 C14            3.0196    -4.7837    -1.2757 C.3     
  15 N15            4.3310    -4.1227    -1.3300 N.3     
  16 C16            4.1831    -2.6878    -1.6107 C.3     
  17 C17            3.3338    -2.0410    -0.5139 C.3     
  18 C18            5.1535    -4.7285    -2.2638 C.ar    
  19 N19            6.3794    -4.2602    -2.4464 N.ar    
  20 C20            7.1909    -4.8161    -3.3308 C.ar    
  21 C21            6.7446    -5.9003    -4.0700 C.ar    
  22 C22            5.4566    -6.3647    -3.8537 C.ar    
  23 N23            4.6982    -5.7664    -2.9500 N.ar    
  24 C24           -0.4033    -0.4312    -0.5261 C.2     
  25 C25            1.6119     5.9449    -2.8934 C.3     
  26 C26            2.5248     4.7805    -2.5040 C.3     
  27 C27            1.8766    -1.9775     1.8751 C.3     
  28 C28           -1.3930    -1.5510    -0.7200 C.3     
  29 F29           -2.0266    -1.8292     0.4959 F       
  30 F30           -2.3490    -1.1695    -1.6675 F       
  31 F31           -0.7221    -2.6938    -1.1684 F       
  32 H32            2.6652     0.1968     0.7095 H       
  33 H33            2.1103     2.4337    -0.0363 H       
  34 H34           -0.5623     5.1317    -1.2599 H       
  35 H35            0.9016     4.5064    -0.4636 H       
  36 H36            0.2374    -2.6449     0.6468 H       
  37 H37            0.6480     3.9927    -3.4668 H       
  38 H38            2.6596    -4.2702     0.7859 H       
  39 H39            1.1868    -4.6063    -0.1563 H       
  40 H40            3.1549    -5.8423    -1.0542 H       
  41 H41            2.5171    -4.6742    -2.2368 H       
  42 H42            5.1666    -2.2184    -1.6334 H       
  43 H43            3.6938    -2.5545    -2.5756 H       
  44 H44            3.1985    -0.9824    -0.7354 H       
  45 H45            3.8362    -2.1505     0.4472 H       
  46 H46            8.1889    -4.4297    -3.4754 H       
  47 H47            7.3863    -6.3729    -4.7989 H       
  48 H48            5.0783    -7.2073    -4.4134 H       
  49 H49            1.6394     6.2811    -3.9299 H       
  50 H50            1.4461     6.7249    -2.1503 H       
  51 H51            2.9597     4.7945    -1.5046 H       
  52 H52            3.1529     4.3507    -3.2842 H       
  53 H53            2.7885    -1.3917     1.7598 H       
  54 H54            1.2288    -1.5004     2.6105 H       
  55 H55            2.1306    -2.9825     2.2123 H       
@<TRIPOS>BOND
   1    1   24 1
   2    1    5 1
   3    1    8 2
   4    2    3 1
   5    2   10 1
   6    2   24 2
   7    3    4 2
   8    3   32 1
   9    4    5 1
  10    4   33 1
  11    5    6 1
  12    6    7 2
  13    6    9 1
  14    7    8 1
  15    9   11 1
  16    9   34 1
  17    9   35 1
  18   10   12 1
  19   10   27 1
  20   10   36 1
  21   11   25 1
  22   11   26 1
  23   11   37 1
  24   12   13 1
  25   12   17 1
  26   13   14 1
  27   13   38 1
  28   13   39 1
  29   14   15 1
  30   14   40 1
  31   14   41 1
  32   15   16 1
  33   15   18 1
  34   16   17 1
  35   16   42 1
  36   16   43 1
  37   17   44 1
  38   17   45 1
  39   18   19 ar
  40   18   23 ar
  41   19   20 ar
  42   20   21 ar
  43   20   46 1
  44   21   22 ar
  45   21   47 1
  46   22   23 ar
  47   22   48 1
  48   24   28 1
  49   25   26 1
  50   25   49 1
  51   25   50 1
  52   26   51 1
  53   26   52 1
  54   27   53 1
  55   27   54 1
  56   27   55 1
  57   28   29 1
  58   28   30 1
  59   28   31 1

#	End of record

