#	Name: ASD00190040
#	Creating user name:	WinNT
#	Creation time:	15. 06. 2019 18:33

#	Modifying user name:	WinNT
#	Modification time:	15. 06. 2019 18:33

#	Program:	/corina/corina34_cracker 3.40 0067  02.08.2006

@<TRIPOS>MOLECULE
ASD00190040
  49   54    0    0    0
SMALL
NO_CHARGES


@<TRIPOS>ATOM
   1 C1             0.1168     1.4519    -1.1496 C.ar    
   2 C2             0.1570     0.1044    -1.3499 C.ar    
   3 C3             1.3349    -0.6125    -1.1668 C.ar    
   4 C4             2.4817     0.0183    -0.7812 C.ar    
   5 C5             2.4738     1.4004    -0.5674 C.ar    
   6 C6             1.2769     2.1342    -0.7526 C.ar    
   7 C7             3.6706     2.1209    -0.1558 C.ar    
   8 C8             3.5710     3.5028     0.0345 C.ar    
   9 C9             2.3253     4.1352    -0.1790 C.ar    
  10 N10            1.2613     3.4600    -0.5499 N.ar    
  11 N11            4.9678     1.7842     0.1163 N.pl3   
  12 C12            5.6207     2.9287     0.4579 C.2     
  13 N13            4.7980     3.9371     0.4091 N.2     
  14 N14            2.2232     5.5039     0.0092 N.pl3   
  15 C15            0.9765     6.1312    -0.0814 C.ar    
  16 C16            7.0769     3.0158     0.8357 C.3     
  17 C17            7.2524     2.7067     2.3329 C.3     
  18 C18            8.1627     1.4645     2.4227 C.3     
  19 C19            8.9495     1.4730     1.0885 C.3     
  20 C20            7.8868     1.9507     0.0680 C.3     
  21 C21           -0.1613     5.4606     0.3321 C.ar    
  22 C22           -1.4006     6.0849     0.2417 C.ar    
  23 C23           -1.4795     7.3928    -0.2702 C.ar    
  24 C24           -0.3200     8.0537    -0.6822 C.ar    
  25 C25            0.8900     7.4297    -0.5824 C.ar    
  26 N26           -2.6822     5.6955     0.5614 N.pl3   
  27 C27           -3.5613     6.7051     0.2711 C.2     
  28 C28           -2.8986     7.7571    -0.2337 C.2     
  29 H29           -0.8050     1.9942    -1.3004 H       
  30 H30           -0.7395    -0.4149    -1.6550 H       
  31 H31            1.3417    -1.6798    -1.3313 H       
  32 H32            3.3912    -0.5471    -0.6414 H       
  33 H33            5.3516     0.8943     0.0740 H       
  34 H34            3.0165     6.0272     0.2038 H       
  35 H35            7.4615     4.0110     0.6124 H       
  36 H36            7.7229     3.5516     2.8359 H       
  37 H37            6.2843     2.4937     2.7861 H       
  38 H38            8.8449     1.5518     3.2683 H       
  39 H39            7.5637     0.5578     2.5065 H       
  40 H40            9.7825     2.1744     1.1357 H       
  41 H41            9.3003     0.4712     0.8406 H       
  42 H42            7.2431     1.1224    -0.2284 H       
  43 H43            8.3675     2.3927    -0.8047 H       
  44 H44           -0.0871     4.4566     0.7229 H       
  45 H45           -0.3802     9.0579    -1.0753 H       
  46 H46            1.7856     7.9423    -0.9011 H       
  47 H47           -2.9261     4.8347     0.9362 H       
  48 H48           -4.6293     6.6607     0.4251 H       
  49 H49           -3.3295     8.6947    -0.5527 H       
@<TRIPOS>BOND
   1    1    2 ar
   2    1    6 ar
   3    1   29 1
   4    2    3 ar
   5    2   30 1
   6    3    4 ar
   7    3   31 1
   8    4    5 ar
   9    4   32 1
  10    5    6 ar
  11    5    7 ar
  12    6   10 ar
  13    7    8 ar
  14    7   11 1
  15    8    9 ar
  16    8   13 1
  17    9   10 ar
  18    9   14 1
  19   11   12 1
  20   11   33 1
  21   12   13 2
  22   12   16 1
  23   14   15 1
  24   14   34 1
  25   15   21 ar
  26   15   25 ar
  27   16   17 1
  28   16   20 1
  29   16   35 1
  30   17   18 1
  31   17   36 1
  32   17   37 1
  33   18   19 1
  34   18   38 1
  35   18   39 1
  36   19   20 1
  37   19   40 1
  38   19   41 1
  39   20   42 1
  40   20   43 1
  41   21   22 ar
  42   21   44 1
  43   22   23 ar
  44   22   26 1
  45   23   24 ar
  46   23   28 1
  47   24   25 ar
  48   24   45 1
  49   25   46 1
  50   26   27 1
  51   26   47 1
  52   27   28 2
  53   27   48 1
  54   28   49 1

#	End of record

