#	Name: ASD01410970
#	Creating user name:	WinNT
#	Creation time:	15. 06. 2019 19:19

#	Modifying user name:	WinNT
#	Modification time:	15. 06. 2019 19:19

#	Program:	/corina/corina34_cracker 3.40 0067  02.08.2006

@<TRIPOS>MOLECULE
ASD01410970
  60   64    0    0    0
SMALL
NO_CHARGES


@<TRIPOS>ATOM
   1 C1             0.3641     1.8449    -0.3272 C.ar    
   2 P2             0.2231     0.0471    -0.5240 P.3     
   3 N3             0.1629    -0.6615     0.9538 N.pl3   
   4 O4            -1.0119    -0.2717    -1.2746 O.2     
   5 C5             0.1514    -2.0495     1.0602 C.2     
   6 C6             0.2124    -2.7052     2.2682 C.2     
   7 S7             0.1750    -4.4422     1.9989 S.3     
   8 C8             0.0782    -4.2104     0.2591 C.2     
   9 C9             0.0724    -2.8804    -0.0331 C.2     
  10 C10            0.2931    -2.0790     3.5310 C.2     
  11 O11            0.3133    -0.8642     3.6079 O.2     
  12 O12            0.3479    -2.8275     4.6534 O.3     
  13 C13            0.0073    -5.2983    -0.7387 C.ar    
  14 C14           -0.0920    -6.6267    -0.3213 C.ar    
  15 C15           -0.1583    -7.6376    -1.2573 C.ar    
  16 C16           -0.1261    -7.3369    -2.6088 C.ar    
  17 C17           -0.0278    -6.0210    -3.0290 C.ar    
  18 C18            0.0334    -5.0011    -2.1025 C.ar    
  19 O19            1.5006    -0.5061    -1.3328 O.3     
  20 C20            1.8286    -0.0786    -2.6563 C.3     
  21 Cl21          -0.2089    -8.6148    -3.7809 Cl      
  22 C22           -0.7670     2.6372    -0.3845 C.ar    
  23 C23           -0.6595     4.0074    -0.2346 C.ar    
  24 C24            0.5789     4.5848    -0.0270 C.ar    
  25 C25            1.7102     3.7922     0.0312 C.ar    
  26 C26            1.6023     2.4220    -0.1143 C.ar    
  27 C27            2.8348     1.5576    -0.0456 C.3     
  28 C28            0.6962     6.0785     0.1354 C.3     
  29 C29            3.0763    -0.7865    -3.1181 C.2     
  30 C30            3.0977    -1.9584    -3.7673 C.2     
  31 C31            4.5120    -2.2630    -4.0154 C.ar    
  32 C32            5.2296    -1.1893    -3.4622 C.ar    
  33 O33            4.3291    -0.3307    -2.9433 O.3     
  34 C34            5.1893    -3.3127    -4.6340 C.ar    
  35 C35            6.5549    -3.2929    -4.7001 C.ar    
  36 C36            7.2693    -2.2357    -4.1552 C.ar    
  37 C37            6.6168    -1.1879    -3.5417 C.ar    
  38 H38            0.1353    -0.1135     1.7537 H       
  39 H39            0.0138    -2.5070    -1.0448 H       
  40 H40            0.4015    -2.3104     5.4688 H       
  41 H41           -0.1164    -6.8625     0.7323 H       
  42 H42           -0.2351    -8.6657    -0.9356 H       
  43 H43           -0.0032    -5.7927    -4.0843 H       
  44 H44            0.1056    -3.9749    -2.4314 H       
  45 H45            1.0053    -0.3172    -3.3297 H       
  46 H46            1.9996     0.9979    -2.6586 H       
  47 H47           -1.7347     2.1859    -0.5467 H       
  48 H48           -1.5433     4.6265    -0.2801 H       
  49 H49            2.6780     4.2435     0.1930 H       
  50 H50            3.2019     1.3674    -1.0542 H       
  51 H51            3.6055     2.0688     0.5312 H       
  52 H52            2.5884     0.6111     0.4357 H       
  53 H53            0.6012     6.3379     1.1898 H       
  54 H54            1.6669     6.4090    -0.2341 H       
  55 H55           -0.0948     6.5688    -0.4321 H       
  56 H56            2.2457    -2.5586    -4.0505 H       
  57 H57            4.6377    -4.1383    -5.0590 H       
  58 H58            7.0808    -4.1056    -5.1790 H       
  59 H59            8.3477    -2.2328    -4.2140 H       
  60 H60            7.1820    -0.3658    -3.1279 H       
@<TRIPOS>BOND
   1    1    2 1
   2    1   22 ar
   3    1   26 ar
   4    2    3 1
   5    2    4 2
   6    2   19 1
   7    3    5 1
   8    3   38 1
   9    5    6 2
  10    5    9 1
  11    6    7 1
  12    6   10 1
  13    7    8 1
  14    8    9 2
  15    8   13 1
  16    9   39 1
  17   10   11 2
  18   10   12 1
  19   12   40 1
  20   13   14 ar
  21   13   18 ar
  22   14   15 ar
  23   14   41 1
  24   15   16 ar
  25   15   42 1
  26   16   17 ar
  27   16   21 1
  28   17   18 ar
  29   17   43 1
  30   18   44 1
  31   19   20 1
  32   20   29 1
  33   20   45 1
  34   20   46 1
  35   22   23 ar
  36   22   47 1
  37   23   24 ar
  38   23   48 1
  39   24   25 ar
  40   24   28 1
  41   25   26 ar
  42   25   49 1
  43   26   27 1
  44   27   50 1
  45   27   51 1
  46   27   52 1
  47   28   53 1
  48   28   54 1
  49   28   55 1
  50   29   30 2
  51   29   33 1
  52   30   31 1
  53   30   56 1
  54   31   34 ar
  55   31   32 ar
  56   32   33 1
  57   32   37 ar
  58   34   35 ar
  59   34   57 1
  60   35   36 ar
  61   35   58 1
  62   36   37 ar
  63   36   59 1
  64   37   60 1

#	End of record

