#	Name: ASD00110005
#	Creating user name:	WinNT
#	Creation time:	15. 06. 2019 18:30

#	Modifying user name:	WinNT
#	Modification time:	15. 06. 2019 18:30

#	Program:	/corina/corina34_cracker 3.40 0067  02.08.2006

@<TRIPOS>MOLECULE
ASD00110005
  61   61    0    0    0
SMALL
NO_CHARGES


@<TRIPOS>ATOM
   1 C1             0.0696     1.8953    -0.0759 C.3     
   2 C2            -0.1065     0.3790    -0.1947 C.3     
   3 C3             0.5499    -0.3017     1.0086 C.3     
   4 N4             1.9771     0.0417     1.0485 N.3     
   5 C5             2.1708     1.4884     1.2098 C.3     
   6 C6             1.5628     2.2225     0.0125 C.3     
   7 C7             1.4950     1.9473     2.4762 C.2     
   8 N8             1.4730     3.2575     2.7916 N.am    
   9 C9             0.8160     3.7036     4.0226 C.3     
  10 C10           -0.5313     2.5778    -1.3064 C.3     
  11 O11            0.9710     1.1377     3.2116 O.2     
  12 C12            0.9335     5.2245     4.1411 C.3     
  13 O13            0.2050     5.8427     3.0785 O.3     
  14 C14           -2.0436     2.3472    -1.3299 C.3     
  15 C15           -2.6445     3.0296    -2.5604 C.3     
  16 C16           -4.1569     2.7990    -2.5839 C.3     
  17 C17           -4.7578     3.4814    -3.8144 C.3     
  18 C18           -6.2701     3.2508    -3.8379 C.3     
  19 C19           -6.8710     3.9332    -5.0684 C.3     
  20 C20           -8.3834     3.7026    -5.0919 C.3     
  21 C21           -8.9843     4.3850    -6.3224 C.3     
  22 C22          -10.4966     4.1544    -6.3459 C.3     
  23 C23          -11.0975     4.8368    -7.5764 C.3     
  24 H24           -0.4352     2.2514     0.8221 H       
  25 H25           -1.1690     0.1365    -0.2151 H       
  26 H26            0.3650     0.0287    -1.1129 H       
  27 H27            0.0687     0.0386     1.9255 H       
  28 H28            0.4388    -1.3824     0.9198 H       
  29 H29            2.4520    -0.4701     1.7768 H       
  30 H30            3.2369     1.7079     1.2672 H       
  31 H31            2.0606     1.9012    -0.9024 H       
  32 H32            1.6930     3.2971     0.1402 H       
  33 H33            1.8921     3.9050     2.2034 H       
  34 H34           -0.2365     3.4215     3.9956 H       
  35 H35            1.2960     3.2341     4.8813 H       
  36 H36           -0.3276     3.6477    -1.2643 H       
  37 H37           -0.0857     2.1583    -2.2084 H       
  38 H38            0.5238     5.5471     5.0983 H       
  39 H39            1.9826     5.5138     4.0789 H       
  40 H40            0.2357     6.8092     3.0908 H       
  41 H41           -2.2474     1.2772    -1.3721 H       
  42 H42           -2.4892     2.7666    -0.4279 H       
  43 H43           -2.4408     4.0996    -2.5183 H       
  44 H44           -2.1990     2.6101    -3.4624 H       
  45 H45           -4.3606     1.7290    -2.6261 H       
  46 H46           -4.6024     3.2184    -1.6819 H       
  47 H47           -4.5540     4.5514    -3.7723 H       
  48 H48           -4.3122     3.0619    -4.7164 H       
  49 H49           -6.4739     2.1808    -3.8801 H       
  50 H50           -6.7157     3.6702    -2.9359 H       
  51 H51           -6.6673     5.0032    -5.0263 H       
  52 H52           -6.4254     3.5137    -5.9704 H       
  53 H53           -8.5871     2.6326    -5.1341 H       
  54 H54           -8.8289     4.1220    -4.1899 H       
  55 H55           -8.7805     5.4550    -6.2803 H       
  56 H56           -8.5387     3.9655    -7.2244 H       
  57 H57          -10.7003     3.0844    -6.3881 H       
  58 H58          -10.9422     4.5738    -5.4439 H       
  59 H59          -10.8937     5.9068    -7.5343 H       
  60 H60          -10.6519     4.4174    -8.4784 H       
  61 H61          -12.1749     4.6725    -7.5932 H       
@<TRIPOS>BOND
   1    1    2 1
   2    1    6 1
   3    1   10 1
   4    1   24 1
   5    2    3 1
   6    2   25 1
   7    2   26 1
   8    3    4 1
   9    3   27 1
  10    3   28 1
  11    4    5 1
  12    4   29 1
  13    5    6 1
  14    5    7 1
  15    5   30 1
  16    6   31 1
  17    6   32 1
  18    7    8 am
  19    7   11 2
  20    8    9 1
  21    8   33 1
  22    9   12 1
  23    9   34 1
  24    9   35 1
  25   10   14 1
  26   10   36 1
  27   10   37 1
  28   12   13 1
  29   12   38 1
  30   12   39 1
  31   13   40 1
  32   14   15 1
  33   14   41 1
  34   14   42 1
  35   15   16 1
  36   15   43 1
  37   15   44 1
  38   16   17 1
  39   16   45 1
  40   16   46 1
  41   17   18 1
  42   17   47 1
  43   17   48 1
  44   18   19 1
  45   18   49 1
  46   18   50 1
  47   19   20 1
  48   19   51 1
  49   19   52 1
  50   20   21 1
  51   20   53 1
  52   20   54 1
  53   21   22 1
  54   21   55 1
  55   21   56 1
  56   22   23 1
  57   22   57 1
  58   22   58 1
  59   23   59 1
  60   23   60 1
  61   23   61 1

#	End of record

