#	Name: ASD02398015
#	Creating user name:	WinNT
#	Creation time:	15. 06. 2019 20:20

#	Modifying user name:	WinNT
#	Modification time:	15. 06. 2019 20:20

#	Program:	/corina/corina34_cracker 3.40 0067  02.08.2006

@<TRIPOS>MOLECULE
ASD02398015
  56   59    0    0    0
SMALL
NO_CHARGES


@<TRIPOS>ATOM
   1 C1            -0.0355     1.3038    -0.0250 C.ar    
   2 C2            -0.0195    -0.0890     0.0206 C.ar    
   3 C3             1.1972    -0.7675     0.0410 C.ar    
   4 C4             2.3808    -0.0584     0.0160 C.ar    
   5 C5             2.3603     1.3260    -0.0293 C.ar    
   6 C6             1.1524     2.0048    -0.0497 C.ar    
   7 C7             3.6975    -0.7911     0.0385 C.3     
   8 C8             4.2546    -0.8661    -1.3597 C.2     
   9 O9             3.6450    -0.3750    -2.2801 O.2     
  10 O10            5.4280    -1.4785    -1.5827 O.3     
  11 C11           -1.2947    -0.8472     0.0478 C.ar    
  12 C12           -2.2372    -0.5951     1.0430 C.ar    
  13 C13           -1.5567    -1.8097    -0.9248 C.ar    
  14 C14           -2.7449    -2.5118    -0.8950 C.ar    
  15 C15           -3.6744    -2.2612     0.0980 C.ar    
  16 C16           -3.4216    -1.3029     1.0632 C.ar    
  17 C17           -1.9631     0.4482     2.0954 C.3     
  18 N18           -3.1467     0.6089     2.9436 N.am    
  19 C19           -3.4577    -0.1545     4.0002 C.2     
  20 O20           -4.5949     0.2010     4.6084 O.3     
  21 C21           -5.1756     1.3470     3.9213 C.3     
  22 C22           -4.1842     1.6384     2.7783 C.3     
  23 O23           -2.7698    -1.0847     4.3716 O.2     
  24 C24           -4.8707     1.4863     1.4195 C.3     
  25 C25           -6.5353     1.0001     3.3717 C.ar    
  26 C26           -7.5259     1.9628     3.3195 C.ar    
  27 C27           -6.7901    -0.2793     2.9145 C.ar    
  28 C28           -8.0373    -0.5976     2.4103 C.ar    
  29 C29           -9.0298     0.3635     2.3638 C.ar    
  30 C30           -8.7731     1.6446     2.8154 C.ar    
  31 F31            3.5214     2.0163    -0.0536 F       
  32 C32           -4.9697    -3.0308     0.1253 C.3     
  33 F33           -4.9996    -3.9317    -0.9446 F       
  34 F34           -5.0686    -3.7347     1.3304 F       
  35 F35           -6.0434    -2.1407     0.0157 F       
  36 H36           -0.9765     1.8335    -0.0454 H       
  37 H37            1.2141    -1.8468     0.0766 H       
  38 H38            1.1410     3.0841    -0.0850 H       
  39 H39            4.3987    -0.2585     0.6809 H       
  40 H40            3.5457    -1.7994     0.4237 H       
  41 H41            5.7447    -1.5014    -2.4961 H       
  42 H42           -0.8318    -2.0059    -1.7009 H       
  43 H43           -2.9492    -3.2578    -1.6487 H       
  44 H44           -4.1509    -1.1112     1.8364 H       
  45 H45           -1.1176     0.1337     2.7072 H       
  46 H46           -1.7297     1.3977     1.6136 H       
  47 H47           -5.2411     2.2026     4.5934 H       
  48 H48           -3.7601     2.6369     2.8845 H       
  49 H49           -5.6568     2.2352     1.3237 H       
  50 H50           -4.1379     1.6250     0.6246 H       
  51 H51           -5.3065     0.4902     1.3421 H       
  52 H52           -7.3256     2.9635     3.6729 H       
  53 H53           -6.0147    -1.0302     2.9508 H       
  54 H54           -8.2361    -1.5970     2.0525 H       
  55 H55          -10.0040     0.1150     1.9696 H       
  56 H56           -9.5485     2.3954     2.7790 H       
@<TRIPOS>BOND
   1    1    2 ar
   2    1    6 ar
   3    1   36 1
   4    2    3 ar
   5    2   11 1
   6    3    4 ar
   7    3   37 1
   8    4    5 ar
   9    4    7 1
  10    5    6 ar
  11    5   31 1
  12    6   38 1
  13    7    8 1
  14    7   39 1
  15    7   40 1
  16    8    9 2
  17    8   10 1
  18   10   41 1
  19   11   12 ar
  20   11   13 ar
  21   12   17 1
  22   12   16 ar
  23   13   14 ar
  24   13   42 1
  25   14   15 ar
  26   14   43 1
  27   15   16 ar
  28   15   32 1
  29   16   44 1
  30   17   18 1
  31   17   45 1
  32   17   46 1
  33   18   19 am
  34   18   22 1
  35   19   20 1
  36   19   23 2
  37   20   21 1
  38   21   22 1
  39   21   25 1
  40   21   47 1
  41   22   24 1
  42   22   48 1
  43   24   49 1
  44   24   50 1
  45   24   51 1
  46   25   26 ar
  47   25   27 ar
  48   26   30 ar
  49   26   52 1
  50   27   28 ar
  51   27   53 1
  52   28   29 ar
  53   28   54 1
  54   29   30 ar
  55   29   55 1
  56   30   56 1
  57   32   33 1
  58   32   34 1
  59   32   35 1

#	End of record

