#	Name: ASD04880225
#	Creating user name:	WinNT
#	Creation time:	15. 06. 2019 20:53

#	Modifying user name:	WinNT
#	Modification time:	15. 06. 2019 20:53

#	Program:	/corina/corina34_cracker 3.40 0067  02.08.2006

@<TRIPOS>MOLECULE
ASD04880225
  75   80    0    0    0
SMALL
NO_CHARGES


@<TRIPOS>ATOM
   1 C1             4.9513    -0.4685     2.0057 C.3     
   2 O2             4.4567    -1.7817     1.7357 O.3     
   3 C3             4.1874    -2.0854     0.4373 C.ar    
   4 C4             4.4014    -1.1402    -0.5510 C.ar    
   5 C5             4.1302    -1.4407    -1.8751 C.ar    
   6 C6             4.3009    -0.3758    -2.9254 C.3     
   7 C7             4.7516    -0.9658    -4.2631 C.3     
   8 C8             3.9378    -2.1992    -4.5509 C.2     
   9 C9             3.5431    -2.7341    -5.7281 C.2     
  10 N10            2.8387    -3.8655    -5.4520 N.2     
  11 C11            2.7884    -4.0330    -4.1471 C.2     
  12 C12            2.1207    -5.1488    -3.4451 C.2     
  13 C13            2.4023    -6.4908    -3.7135 C.2     
  14 C14            1.6959    -7.3445    -2.9759 C.2     
  15 S15            0.6301    -6.4577    -1.8962 S.3     
  16 C16            1.1927    -4.9595    -2.4880 C.2     
  17 N17            3.4536    -3.0091    -3.5553 N.pl3   
  18 C18            3.6654    -2.7097    -2.2043 C.ar    
  19 C19            3.4377    -3.6552    -1.2185 C.ar    
  20 C20            3.7030    -3.3478     0.1061 C.ar    
  21 O21            3.4863    -4.2733     1.0787 O.3     
  22 C22            2.8528    -5.4921     0.6849 C.3     
  23 C23            3.2536    -6.6100     1.6495 C.3     
  24 C24            1.3339    -5.3110     0.7170 C.3     
  25 C25            3.8241    -2.1902    -7.0679 C.2     
  26 O26            4.3900    -1.1198    -7.1833 O.2     
  27 N27            3.4541    -2.8787    -8.1659 N.am    
  28 C28            2.8710    -4.1711    -8.0698 C.3     
  29 C29            3.8994    -5.3420    -7.9416 C.3     
  30 C30            5.1154    -4.9947    -8.8613 C.3     
  31 N31            4.7694    -4.3688   -10.0892 N.am    
  32 C32            4.8386    -2.8855   -10.1343 C.3     
  33 C33            3.6322    -2.3176    -9.5298 C.3     
  34 C34            4.3955    -5.0889   -11.1654 C.2     
  35 O35            4.3486    -6.2990   -11.0988 O.2     
  36 C36            4.0355    -4.3905   -12.4514 C.3     
  37 C37            5.2543    -4.0166   -13.3114 C.3     
  38 C38            5.1199    -5.4025   -13.9642 C.3     
  39 C39            3.6313    -5.3513   -13.5819 C.3     
  40 H40            5.8875    -0.3154     1.4688 H       
  41 H41            4.2196     0.2698     1.6779 H       
  42 H42            5.1242    -0.3583     3.0762 H       
  43 H43            4.7811    -0.1640    -0.2882 H       
  44 H44            3.3510     0.1397    -3.0665 H       
  45 H45            5.0464     0.3428    -2.5849 H       
  46 H46            4.5972    -0.2335    -5.0556 H       
  47 H47            5.8077    -1.2298    -4.2084 H       
  48 H48            3.1254    -6.8061    -4.4512 H       
  49 H49            1.7669    -8.4206    -3.0328 H       
  50 H50            0.8507    -3.9944    -2.1445 H       
  51 H51            3.0579    -4.6312    -1.4820 H       
  52 H52            3.1661    -5.7545    -0.3256 H       
  53 H53            2.9402    -6.3477     2.6600 H       
  54 H54            2.7704    -7.5397     1.3491 H       
  55 H55            4.3357    -6.7391     1.6266 H       
  56 H56            0.8497    -6.2643     0.5051 H       
  57 H57            1.0305    -4.9608     1.7036 H       
  58 H58            1.0393    -4.5788    -0.0349 H       
  59 H59            2.2161    -4.1901    -7.1986 H       
  60 H60            2.2625    -4.3420    -8.9578 H       
  61 H61            4.2308    -5.4330    -6.9072 H       
  62 H62            3.4414    -6.2754    -8.2688 H       
  63 H63            5.7846    -4.3319    -8.3127 H       
  64 H64            5.6541    -5.9159    -9.0834 H       
  65 H65            5.7160    -2.5464    -9.5836 H       
  66 H66            4.9123    -2.5571   -11.1711 H       
  67 H67            2.7656    -2.5685   -10.1414 H       
  68 H68            3.7293    -1.2338    -9.4664 H       
  69 H69            3.3343    -3.5689   -12.3049 H       
  70 H70            5.0676    -3.1907   -13.9977 H       
  71 H71            6.1722    -3.8917   -12.7369 H       
  72 H72            5.2949    -5.3971   -15.0401 H       
  73 H73            5.6768    -6.1843   -13.4477 H       
  74 H74            3.2389    -6.3039   -13.2260 H       
  75 H75            3.0008    -4.8903   -14.3423 H       
@<TRIPOS>BOND
   1    1    2 1
   2    1   40 1
   3    1   41 1
   4    1   42 1
   5    2    3 1
   6    3   20 ar
   7    3    4 ar
   8    4    5 ar
   9    4   43 1
  10    5   18 ar
  11    5    6 1
  12    6    7 1
  13    6   44 1
  14    6   45 1
  15    7    8 1
  16    7   46 1
  17    7   47 1
  18    8   17 1
  19    8    9 2
  20    9   10 1
  21    9   25 1
  22   10   11 2
  23   11   12 1
  24   11   17 1
  25   12   16 2
  26   12   13 1
  27   13   14 2
  28   13   48 1
  29   14   15 1
  30   14   49 1
  31   15   16 1
  32   16   50 1
  33   17   18 1
  34   18   19 ar
  35   19   20 ar
  36   19   51 1
  37   20   21 1
  38   21   22 1
  39   22   23 1
  40   22   24 1
  41   22   52 1
  42   23   53 1
  43   23   54 1
  44   23   55 1
  45   24   56 1
  46   24   57 1
  47   24   58 1
  48   25   26 2
  49   25   27 am
  50   27   33 1
  51   27   28 1
  52   28   29 1
  53   28   59 1
  54   28   60 1
  55   29   30 1
  56   29   61 1
  57   29   62 1
  58   30   31 1
  59   30   63 1
  60   30   64 1
  61   31   32 1
  62   31   34 am
  63   32   33 1
  64   32   65 1
  65   32   66 1
  66   33   67 1
  67   33   68 1
  68   34   35 2
  69   34   36 1
  70   36   39 1
  71   36   37 1
  72   36   69 1
  73   37   38 1
  74   37   70 1
  75   37   71 1
  76   38   39 1
  77   38   72 1
  78   38   73 1
  79   39   74 1
  80   39   75 1

#	End of record

