#	Name: ASD01200058
#	Creating user name:	WinNT
#	Creation time:	15. 06. 2019 19:08

#	Modifying user name:	WinNT
#	Modification time:	15. 06. 2019 19:08

#	Program:	/corina/corina34_cracker 3.40 0067  02.08.2006

@<TRIPOS>MOLECULE
ASD01200058
  38   40    0    0    0
SMALL
NO_CHARGES


@<TRIPOS>ATOM
   1 C1            -0.1095     1.5638     0.0589 C.ar    
   2 C2            -0.2153     0.1767     0.0949 C.ar    
   3 C3            -1.4552    -0.4273     0.1232 C.ar    
   4 C4            -2.6085     0.3465     0.1153 C.ar    
   5 C5            -2.5093     1.7460     0.0791 C.ar    
   6 C6            -1.2495     2.3493     0.0569 C.ar    
   7 C7            -3.7281     2.5752     0.0705 C.2     
   8 N8            -3.6313     3.9165     0.1606 N.am    
   9 C9            -4.7877     4.6952     0.2709 C.ar    
  10 O10           -4.8209     2.0490    -0.0178 O.2     
  11 S11            1.4802     2.3229     0.0231 S.3     
  12 N12           -3.8584    -0.2638     0.1429 N.pl3   
  13 C13            1.8030     2.2756    -1.7085 C.2     
  14 N14            1.0560     1.7075    -2.6265 N.2     
  15 N15            1.5917     1.8651    -3.7841 N.2     
  16 C16            2.7028     2.5372    -3.6751 C.2     
  17 N17            2.8744     2.8280    -2.3502 N.pl3   
  18 C18            3.9827     3.5696    -1.7436 C.3     
  19 C19           -5.8849     4.2159     0.9748 C.ar    
  20 C20           -7.0252     4.9876     1.0823 C.ar    
  21 C21           -7.0754     6.2360     0.4896 C.ar    
  22 C22           -5.9847     6.7161    -0.2119 C.ar    
  23 C23           -4.8393     5.9518    -0.3183 C.ar    
  24 H24            0.6780    -0.4302     0.1005 H       
  25 H25           -1.5292    -1.5044     0.1511 H       
  26 H26           -1.1652     3.4256     0.0293 H       
  27 H27           -2.7595     4.3417     0.1489 H       
  28 H28           -3.9279    -1.2296     0.0850 H       
  29 H29           -4.6604     0.2764     0.2201 H       
  30 H30            3.3636     2.8166    -4.4823 H       
  31 H31            3.7389     4.6317    -1.7191 H       
  32 H32            4.1468     3.2109    -0.7275 H       
  33 H33            4.8870     3.4179    -2.3330 H       
  34 H34           -5.8466     3.2407     1.4373 H       
  35 H35           -7.8787     4.6156     1.6295 H       
  36 H36           -7.9686     6.8372     0.5745 H       
  37 H37           -6.0272     7.6915    -0.6736 H       
  38 H38           -3.9877     6.3275    -0.8661 H       
@<TRIPOS>BOND
   1    1    2 ar
   2    1   11 1
   3    1    6 ar
   4    2    3 ar
   5    2   24 1
   6    3    4 ar
   7    3   25 1
   8    4    5 ar
   9    4   12 1
  10    5    6 ar
  11    5    7 1
  12    6   26 1
  13    7    8 am
  14    7   10 2
  15    8    9 1
  16    8   27 1
  17    9   19 ar
  18    9   23 ar
  19   11   13 1
  20   12   28 1
  21   12   29 1
  22   13   14 2
  23   13   17 1
  24   14   15 1
  25   15   16 2
  26   16   17 1
  27   16   30 1
  28   17   18 1
  29   18   31 1
  30   18   32 1
  31   18   33 1
  32   19   20 ar
  33   19   34 1
  34   20   21 ar
  35   20   35 1
  36   21   22 ar
  37   21   36 1
  38   22   23 ar
  39   22   37 1
  40   23   38 1

#	End of record

