#	Name: ASD01881769
#	Creating user name:	WinNT
#	Creation time:	15. 06. 2019 19:43

#	Modifying user name:	WinNT
#	Modification time:	15. 06. 2019 19:43

#	Program:	/corina/corina34_cracker 3.40 0067  02.08.2006

@<TRIPOS>MOLECULE
ASD01881769
  38   40    0    0    0
SMALL
NO_CHARGES


@<TRIPOS>ATOM
   1 C1            -0.9855    -0.3525     0.8026 C.2     
   2 C2             0.0405    -0.0082    -0.2461 C.3     
   3 C3            -0.3712    -0.6251    -1.5843 C.3     
   4 O4            -0.6586    -0.9793     1.7881 O.2     
   5 N5            -2.2653     0.0408     0.6480 N.am    
   6 C6             0.1307     1.5122    -0.3916 C.3     
   7 O7             1.3138    -0.5256     0.1453 O.3     
   8 N8             1.9791    -5.9218     0.8111 N.pl3   
   9 N9             3.3648    -5.8813     1.0253 N.2     
  10 N10            3.7723    -4.6629     0.9627 N.2     
  11 C11            2.7380    -3.8351     0.7135 C.ar    
  12 C12            1.5767    -4.6207     0.6123 C.ar    
  13 C13            2.6405    -2.4459     0.5544 C.ar    
  14 C14            1.4114    -1.8731     0.3006 C.ar    
  15 C15            0.2697    -2.6648     0.2027 C.ar    
  16 C16            0.3491    -4.0202     0.3569 C.ar    
  17 C17            1.1287    -7.1146     0.7957 C.3     
  18 C18            0.6088    -7.3886     2.2083 C.3     
  19 C19           -0.3958    -8.5294     2.3825 C.3     
  20 C20            1.0419    -8.6934     2.8797 C.3     
  21 Br21           4.1852    -1.3631     0.6858 Br      
  22 H22           -1.4178    -0.3952    -1.7837 H       
  23 H23            0.2493    -0.2135    -2.3803 H       
  24 H24           -0.2383    -1.7062    -1.5422 H       
  25 H25           -2.5259     0.5455    -0.1383 H       
  26 H26           -2.9257    -0.1808     1.3230 H       
  27 H27            0.3370     1.9586     0.5811 H       
  28 H28            0.9335     1.7638    -1.0846 H       
  29 H29           -0.8142     1.8971    -0.7750 H       
  30 H30           -0.6864    -2.2035     0.0040 H       
  31 H31           -0.5420    -4.6253     0.2795 H       
  32 H32            0.2861    -6.9514     0.1237 H       
  33 H33            1.7089    -7.9700     0.4498 H       
  34 H34            0.4889    -6.5110     2.8435 H       
  35 H35           -1.1764    -8.4025     3.1326 H       
  36 H36           -0.6863    -9.0847     1.4906 H       
  37 H37            1.6971    -9.3566     2.3150 H       
  38 H38            1.2070    -8.6744     3.9570 H       
@<TRIPOS>BOND
   1    1    2 1
   2    1    4 2
   3    1    5 am
   4    2    3 1
   5    2    6 1
   6    2    7 1
   7    3   22 1
   8    3   23 1
   9    3   24 1
  10    5   25 1
  11    5   26 1
  12    6   27 1
  13    6   28 1
  14    6   29 1
  15    7   14 1
  16    8    9 1
  17    8   12 1
  18    8   17 1
  19    9   10 2
  20   10   11 1
  21   11   12 ar
  22   11   13 ar
  23   12   16 ar
  24   13   14 ar
  25   13   21 1
  26   14   15 ar
  27   15   16 ar
  28   15   30 1
  29   16   31 1
  30   17   18 1
  31   17   32 1
  32   17   33 1
  33   18   19 1
  34   18   20 1
  35   18   34 1
  36   19   20 1
  37   19   35 1
  38   19   36 1
  39   20   37 1
  40   20   38 1

#	End of record

