#	Name: ASD01911965
#	Creating user name:	WinNT
#	Creation time:	15. 06. 2019 19:58

#	Modifying user name:	WinNT
#	Modification time:	15. 06. 2019 19:58

#	Program:	/corina/corina34_cracker 3.40 0067  02.08.2006

@<TRIPOS>MOLECULE
ASD01911965
  48   50    0    0    0
SMALL
NO_CHARGES


@<TRIPOS>ATOM
   1 C1             0.3221     1.6307     0.3855 C.ar    
   2 C2             0.3944     0.2576     0.1626 C.ar    
   3 C3             1.6537    -0.3340     0.0963 C.ar    
   4 N4             2.7271     0.4240     0.2463 N.ar    
   5 C5             2.6163     1.7205     0.4557 C.ar    
   6 N6             1.4435     2.3178     0.5251 N.ar    
   7 N7            -0.7659    -0.5064     0.0101 N.pl3   
   8 C8            -2.0202     0.1062     0.0804 C.ar    
   9 C9            -3.9578     0.7347     1.3534 C.ar    
  10 C10           -4.5092     1.3182     0.2284 C.ar    
  11 C11           -3.8202     1.2936    -0.9775 C.ar    
  12 C12           -2.5742     0.6868    -1.0514 C.ar    
  13 N13           -4.3797     1.8842    -2.1155 N.am    
  14 C14           -4.1493     1.3534    -3.3327 C.2     
  15 C15           -4.6445     2.0401    -4.5444 C.ar    
  16 O16           -3.5342     0.3097    -3.4341 O.2     
  17 C17           -4.4075     1.4930    -5.8063 C.ar    
  18 C18           -2.7173     0.1295     1.2838 C.ar    
  19 Cl19          -2.0289    -0.6028     2.6993 Cl      
  20 C20           -0.6674    -1.9492    -0.2236 C.3     
  21 C21           -4.8726     2.1383    -6.9337 C.ar    
  22 C22           -5.5723     3.3257    -6.8159 C.ar    
  23 C23           -5.8112     3.8746    -5.5670 C.ar    
  24 C24           -5.3561     3.2357    -4.4310 C.ar    
  25 Cl25          -6.6898     5.3655    -5.4296 Cl      
  26 C26           -0.7489    -2.2294    -1.7256 C.3     
  27 C27            0.4770    -1.6357    -2.4224 C.3     
  28 C28           -0.7874    -3.7406    -1.9611 C.3     
  29 H29           -0.6354     2.1275     0.4391 H       
  30 H30            1.7521    -1.3958    -0.0747 H       
  31 H31            3.5129     2.3107     0.5743 H       
  32 H32           -4.4955     0.7555     2.2898 H       
  33 H33           -5.4788     1.7904     0.2860 H       
  34 H34           -2.0367     0.6669    -1.9880 H       
  35 H35           -4.9336     2.6758    -2.0286 H       
  36 H36           -3.8607     0.5663    -5.9002 H       
  37 H37            0.2833    -2.3159     0.1633 H       
  38 H38           -1.4868    -2.4565     0.2856 H       
  39 H39           -4.6896     1.7155    -7.9105 H       
  40 H40           -5.9335     3.8271    -7.7017 H       
  41 H41           -5.5428     3.6642    -3.4574 H       
  42 H42           -1.6529    -1.7752    -2.1313 H       
  43 H43            0.4634    -1.9095    -3.4773 H       
  44 H44            0.4580    -0.5499    -2.3285 H       
  45 H45            1.3830    -2.0247    -1.9577 H       
  46 H46           -1.6608    -4.1636    -1.4647 H       
  47 H47           -0.8455    -3.9402    -3.0311 H       
  48 H48            0.1166    -4.1948    -1.5554 H       
@<TRIPOS>BOND
   1    1    2 ar
   2    1    6 ar
   3    1   29 1
   4    2    3 ar
   5    2    7 1
   6    3    4 ar
   7    3   30 1
   8    4    5 ar
   9    5    6 ar
  10    5   31 1
  11    7    8 1
  12    7   20 1
  13    8   18 ar
  14    8   12 ar
  15    9   10 ar
  16    9   18 ar
  17    9   32 1
  18   10   11 ar
  19   10   33 1
  20   11   12 ar
  21   11   13 1
  22   12   34 1
  23   13   14 am
  24   13   35 1
  25   14   15 1
  26   14   16 2
  27   15   17 ar
  28   15   24 ar
  29   17   21 ar
  30   17   36 1
  31   18   19 1
  32   20   26 1
  33   20   37 1
  34   20   38 1
  35   21   22 ar
  36   21   39 1
  37   22   23 ar
  38   22   40 1
  39   23   24 ar
  40   23   25 1
  41   24   41 1
  42   26   27 1
  43   26   28 1
  44   26   42 1
  45   27   43 1
  46   27   44 1
  47   27   45 1
  48   28   46 1
  49   28   47 1
  50   28   48 1

#	End of record

