#	Name: ASD03430776
#	Creating user name:	WinNT
#	Creation time:	15. 06. 2019 20:41

#	Modifying user name:	WinNT
#	Modification time:	15. 06. 2019 20:41

#	Program:	/corina/corina34_cracker 3.40 0067  02.08.2006

@<TRIPOS>MOLECULE
ASD03430776
  40   45    0    0    0
SMALL
NO_CHARGES


@<TRIPOS>ATOM
   1 C1            -0.0166     1.3737     0.0096 C.ar    
   2 C2             0.0021    -0.0041     0.0020 C.ar    
   3 C3             1.2041    -0.6789    -0.0034 C.ar    
   4 C4             2.4068     0.0237     0.0068 C.ar    
   5 C5             2.3791     1.4127     0.0037 C.ar    
   6 C6             1.1692     2.0976     0.0022 C.ar    
   7 C7             1.5599    -2.1406    -0.0299 C.3     
   8 C8             3.0499    -2.1337    -0.3989 C.3     
   9 C9             0.4344    -3.8589     1.0206 C.ar    
  10 C10            1.3127    -2.8120     1.2887 C.ar    
  11 C11            0.7424    -2.9091    -1.0279 C.2     
  12 N12            0.1210    -3.8893    -0.3426 N.am    
  13 O13            0.6577    -2.6903    -2.2179 O.2     
  14 C14            1.7631    -2.5839     2.5703 C.ar    
  15 C15            1.3440    -3.3995     3.6116 C.ar    
  16 C16            0.4663    -4.4467     3.3567 C.ar    
  17 C17            0.0153    -4.6750     2.0670 C.ar    
  18 O18            3.4727    -0.8260     0.0322 O.3     
  19 O19            1.8027    -3.1637     4.8718 O.3     
  20 C20            1.0716    -3.7660     5.9455 C.3     
  21 C21            0.7985    -5.2308     5.5776 C.3     
  22 O22            0.0371    -5.2544     4.3655 O.3     
  23 C23           -1.1521     2.3780     0.0358 C.3     
  24 C24           -0.4180     3.6804     0.4337 C.3     
  25 O25            0.9260     3.4377    -0.0154 O.3     
  26 H26           -0.9263    -0.5560     0.0007 H       
  27 H27            3.3066     1.9660     0.0029 H       
  28 H28            3.5865    -2.9122     0.1435 H       
  29 H29            3.1827    -2.2483    -1.4747 H       
  30 H30           -0.4735    -4.5401    -0.7474 H       
  31 H31            2.4441    -1.7686     2.7649 H       
  32 H32           -0.6653    -5.4908     1.8726 H       
  33 H33            1.6599    -3.7206     6.8619 H       
  34 H34            0.1273    -3.2405     6.0877 H       
  35 H35            1.7428    -5.7545     5.4288 H       
  36 H36            0.2331    -5.7110     6.3762 H       
  37 H37           -1.6099     2.4741    -0.9487 H       
  38 H38           -1.8958     2.1057     0.7847 H       
  39 H39           -0.8483     4.5391    -0.0817 H       
  40 H40           -0.4443     3.8239     1.5139 H       
@<TRIPOS>BOND
   1    1    2 ar
   2    1    6 ar
   3    1   23 1
   4    2    3 ar
   5    2   26 1
   6    3    4 ar
   7    3    7 1
   8    4    5 ar
   9    4   18 1
  10    5    6 ar
  11    5   27 1
  12    6   25 1
  13    7    8 1
  14    7   10 1
  15    7   11 1
  16    8   18 1
  17    8   28 1
  18    8   29 1
  19    9   10 ar
  20    9   12 1
  21    9   17 ar
  22   10   14 ar
  23   11   12 am
  24   11   13 2
  25   12   30 1
  26   14   15 ar
  27   14   31 1
  28   15   16 ar
  29   15   19 1
  30   16   17 ar
  31   16   22 1
  32   17   32 1
  33   19   20 1
  34   20   21 1
  35   20   33 1
  36   20   34 1
  37   21   22 1
  38   21   35 1
  39   21   36 1
  40   23   24 1
  41   23   37 1
  42   23   38 1
  43   24   25 1
  44   24   39 1
  45   24   40 1

#	End of record

