#	Name: ASD00311486
#	Creating user name:	WinNT
#	Creation time:	15. 06. 2019 18:34

#	Modifying user name:	WinNT
#	Modification time:	15. 06. 2019 18:34

#	Program:	/corina/corina34_cracker 3.40 0067  02.08.2006

@<TRIPOS>MOLECULE
ASD00311486
  54   58    0    0    0
SMALL
NO_CHARGES


@<TRIPOS>ATOM
   1 C1            -0.0167     1.3777     0.0096 C.2     
   2 C2             0.0021    -0.0041     0.0020 C.2     
   3 C3             1.2588    -0.6767    -0.0136 C.2     
   4 C4             2.4315     0.0673    -0.0208 C.2     
   5 C5             2.3574     1.4752    -0.0126 C.2     
   6 N6             1.1648     2.0903     0.0022 N.am    
   7 C7            -1.3432    -0.5752     0.0123 C.2     
   8 C8            -2.3227     0.3261     0.0268 C.2     
   9 S9            -1.6793     1.9562     0.0358 S.3     
  10 O10            3.3823     2.1373    -0.0184 O.2     
  11 C11            3.7477    -0.6120    -0.0366 C.ar    
  12 C12            4.5934    -0.4746    -1.1371 C.ar    
  13 C13            5.8182    -1.1099    -1.1459 C.ar    
  14 C14            6.2080    -1.8819    -0.0660 C.ar    
  15 C15            5.3735    -2.0220     1.0285 C.ar    
  16 C16            4.1487    -1.3870     1.0515 C.ar    
  17 O17            1.3087    -2.0291    -0.0209 O.3     
  18 C18           -2.0687    -4.7665    -0.0049 C.ar    
  19 C19           -2.7055    -3.9524     0.9320 C.ar    
  20 C20           -2.4706    -2.5954     0.9379 C.ar    
  21 C21           -1.5956    -2.0348     0.0065 C.ar    
  22 C22           -0.9588    -2.8494    -0.9306 C.ar    
  23 C23           -1.1939    -4.2063    -0.9362 C.ar    
  24 C24           -2.3173    -6.2277    -0.0075 C.ar    
  25 C25           -2.6575    -6.8796    -1.1980 C.ar    
  26 C26           -2.8884    -8.2443    -1.1937 C.ar    
  27 C27           -2.7825    -8.9623    -0.0114 C.ar    
  28 C28           -2.4455    -8.3160     1.1707 C.ar    
  29 C29           -2.2075    -6.9573     1.1746 C.ar    
  30 O30           -3.0098   -10.3019    -0.0098 O.3     
  31 C31           -2.8838   -10.9799     1.2418 C.3     
  32 O32           -2.7611    -6.1750    -2.3548 O.3     
  33 C33           -3.1120    -6.9067    -3.5310 C.3     
  34 H34            1.1326     3.0598     0.0073 H       
  35 H35           -3.3753     0.0845     0.0359 H       
  36 H36            4.2901     0.1275    -1.9808 H       
  37 H37            6.4739    -1.0045    -1.9976 H       
  38 H38            7.1675    -2.3775    -0.0777 H       
  39 H39            5.6832    -2.6260     1.8685 H       
  40 H40            3.4999    -1.4935     1.9084 H       
  41 H41            2.2060    -2.3895    -0.0315 H       
  42 H42           -3.3827    -4.3863     1.6528 H       
  43 H43           -2.9641    -1.9650     1.6628 H       
  44 H44           -0.2819    -2.4157    -1.6518 H       
  45 H45           -0.7008    -4.8368    -1.6612 H       
  46 H46           -3.1515    -8.7502    -2.1109 H       
  47 H47           -2.3647    -8.8795     2.0884 H       
  48 H48           -1.9405    -6.4584     2.0945 H       
  49 H49           -3.0908   -12.0409     1.1027 H       
  50 H50           -1.8702   -10.8543     1.6226 H       
  51 H51           -3.5942   -10.5615     1.9548 H       
  52 H52           -4.0835    -7.3799    -3.3882 H       
  53 H53           -3.1607    -6.2264    -4.3812 H       
  54 H54           -2.3595    -7.6721    -3.7207 H       
@<TRIPOS>BOND
   1    1    2 2
   2    1    6 1
   3    1    9 1
   4    2    3 1
   5    2    7 1
   6    3    4 2
   7    3   17 1
   8    4    5 1
   9    4   11 1
  10    5    6 am
  11    5   10 2
  12    6   34 1
  13    7    8 2
  14    7   21 1
  15    8    9 1
  16    8   35 1
  17   11   12 ar
  18   11   16 ar
  19   12   13 ar
  20   12   36 1
  21   13   14 ar
  22   13   37 1
  23   14   15 ar
  24   14   38 1
  25   15   16 ar
  26   15   39 1
  27   16   40 1
  28   17   41 1
  29   18   19 ar
  30   18   23 ar
  31   18   24 1
  32   19   20 ar
  33   19   42 1
  34   20   21 ar
  35   20   43 1
  36   21   22 ar
  37   22   23 ar
  38   22   44 1
  39   23   45 1
  40   24   25 ar
  41   24   29 ar
  42   25   26 ar
  43   25   32 1
  44   26   27 ar
  45   26   46 1
  46   27   28 ar
  47   27   30 1
  48   28   29 ar
  49   28   47 1
  50   29   48 1
  51   30   31 1
  52   31   49 1
  53   31   50 1
  54   31   51 1
  55   32   33 1
  56   33   52 1
  57   33   53 1
  58   33   54 1

#	End of record

