#	Name: ASD01200004
#	Creating user name:	WinNT
#	Creation time:	15. 06. 2019 19:08

#	Modifying user name:	WinNT
#	Modification time:	15. 06. 2019 19:08

#	Program:	/corina/corina34_cracker 3.40 0067  02.08.2006

@<TRIPOS>MOLECULE
ASD01200004
  52   55    0    0    0
SMALL
NO_CHARGES


@<TRIPOS>ATOM
   1 N1            -0.0146     1.4612     0.0074 N.am    
   2 C2             0.0013    -0.0037     0.0020 C.3     
   3 C3            -0.7104    -0.5093    -1.2263 C.2     
   4 N4            -0.8204    -1.8349    -1.4438 N.am    
   5 C5            -1.5703    -2.3047    -2.5210 C.ar    
   6 O6            -1.1843     0.2766    -2.0192 O.2     
   7 C7            -0.7075    -0.5260     1.2533 C.3     
   8 C8             1.1687     2.3288     0.0040 C.3     
   9 C9             0.6530     3.7461     0.0119 C.ar    
  10 C10           -0.7410     3.6593     0.0193 C.ar    
  11 C11           -1.1157     2.2322     0.0104 C.2     
  12 O12           -2.2569     1.8137     0.0137 O.2     
  13 C13            0.0851    -0.1172     2.4965 C.3     
  14 C14           -0.6861    -0.5303     3.7517 C.3     
  15 C15            0.1065    -0.1214     4.9949 C.3     
  16 C16            1.4695    -0.8162     4.9821 C.3     
  17 C17            2.2407    -0.4031     3.7269 C.3     
  18 C18            1.4481    -0.8120     2.4837 C.3     
  19 C19           -1.5919    -3.6655    -2.8035 C.ar    
  20 C20           -2.3410    -4.1186    -3.8755 C.ar    
  21 C21           -3.0451    -3.1909    -4.6306 C.ar    
  22 C22           -2.9781    -1.8534    -4.2926 C.ar    
  23 N23           -2.2596    -1.4514    -3.2619 N.ar    
  24 C24            1.2726     4.9745     0.0129 C.ar    
  25 C25            0.5128     6.1321     0.0213 C.ar    
  26 C26           -0.8690     6.0575     0.0286 C.ar    
  27 C27           -1.5002     4.8310     0.0277 C.ar    
  28 H28            1.0328    -0.3558    -0.0049 H       
  29 H29           -0.3777    -2.4620    -0.8508 H       
  30 H30           -1.7105    -0.1024     1.3063 H       
  31 H31           -0.7742    -1.6129     1.2061 H       
  32 H32            1.7710     2.1443     0.8936 H       
  33 H33            1.7611     2.1508    -0.8935 H       
  34 H34            0.2281     0.9634     2.4971 H       
  35 H35           -1.6572    -0.0353     3.7609 H       
  36 H36           -0.8291    -1.6108     3.7511 H       
  37 H37            0.2495     0.9592     4.9955 H       
  38 H38           -0.4429    -0.4157     5.8891 H       
  39 H39            2.0342    -0.5250     5.8677 H       
  40 H40            1.3265    -1.8968     4.9814 H       
  41 H41            2.3837     0.6774     3.7275 H       
  42 H42            3.2118    -0.8981     3.7177 H       
  43 H43            1.3051    -1.8926     2.4831 H       
  44 H44            1.9976    -0.5177     1.5894 H       
  45 H45           -1.0316    -4.3598    -2.1950 H       
  46 H46           -2.3765    -5.1701    -4.1193 H       
  47 H47           -3.6388    -3.5115    -5.4738 H       
  48 H48           -3.5242    -1.1278    -4.8771 H       
  49 H49            2.3508     5.0358     0.0075 H       
  50 H50            1.0001     7.0960     0.0224 H       
  51 H51           -1.4561     6.9640     0.0352 H       
  52 H52           -2.5788     4.7772     0.0327 H       
@<TRIPOS>BOND
   1    1    2 1
   2    1    8 1
   3    1   11 am
   4    2    3 1
   5    2    7 1
   6    2   28 1
   7    3    4 am
   8    3    6 2
   9    4    5 1
  10    4   29 1
  11    5   19 ar
  12    5   23 ar
  13    7   13 1
  14    7   30 1
  15    7   31 1
  16    8    9 1
  17    8   32 1
  18    8   33 1
  19    9   10 ar
  20    9   24 ar
  21   10   11 1
  22   10   27 ar
  23   11   12 2
  24   13   14 1
  25   13   18 1
  26   13   34 1
  27   14   15 1
  28   14   35 1
  29   14   36 1
  30   15   16 1
  31   15   37 1
  32   15   38 1
  33   16   17 1
  34   16   39 1
  35   16   40 1
  36   17   18 1
  37   17   41 1
  38   17   42 1
  39   18   43 1
  40   18   44 1
  41   19   20 ar
  42   19   45 1
  43   20   21 ar
  44   20   46 1
  45   21   22 ar
  46   21   47 1
  47   22   23 ar
  48   22   48 1
  49   24   25 ar
  50   24   49 1
  51   25   26 ar
  52   25   50 1
  53   26   27 ar
  54   26   51 1
  55   27   52 1

#	End of record

