#	Name: ASD01208694
#	Creating user name:	WinNT
#	Creation time:	15. 06. 2019 19:10

#	Modifying user name:	WinNT
#	Modification time:	15. 06. 2019 19:10

#	Program:	/corina/corina34_cracker 3.40 0067  02.08.2006

@<TRIPOS>MOLECULE
ASD01208694
  58   61    0    0    0
SMALL
NO_CHARGES


@<TRIPOS>ATOM
   1 C1            -0.6911     1.7346    -0.1793 C.2     
   2 C2            -0.7126     0.2626    -0.3121 C.ar    
   3 C3             0.4846    -0.4516    -0.3794 C.ar    
   4 C4             0.4600    -1.8306    -0.5038 C.ar    
   5 C5            -0.7526    -2.5025    -0.5620 C.ar    
   6 C6            -1.9452    -1.7966    -0.4955 C.ar    
   7 C7            -1.9297    -0.4173    -0.3648 C.ar    
   8 O8             0.3703     2.3249    -0.1286 O.2     
   9 N9            -1.8484     2.4229    -0.1201 N.am    
  10 S10           -3.2152     4.8019     0.0910 S.3     
  11 C11           -1.8282     3.8061     0.0047 C.2     
  12 N12           -0.7548     4.5299     0.0730 N.2     
  13 C13           -0.9202     5.8341     0.1905 C.2     
  14 C14           -2.1938     6.2312     0.2231 C.2     
  15 O15           -3.1301    -2.4594    -0.5535 O.3     
  16 C16           -3.8335    -2.4078    -1.7142 C.ar    
  17 C17           -5.0445    -3.0800    -1.8209 C.ar    
  18 C18           -5.7611    -3.0300    -2.9969 C.ar    
  19 C19           -5.2686    -2.3021    -4.0820 C.ar    
  20 C20           -4.0512    -1.6274    -3.9707 C.ar    
  21 C21           -3.3428    -1.6782    -2.7897 C.ar    
  22 O22           -5.6798    -1.5860    -6.4658 O.3     
  23 C23           -6.0337    -2.2463    -5.3450 C.2     
  24 N24           -7.1846    -2.8305    -5.5848 N.2     
  25 N25           -7.5529    -2.5640    -6.7884 N.2     
  26 C26           -6.6598    -1.8058    -7.3599 C.2     
  27 C27           -6.7154    -1.2721    -8.7681 C.3     
  28 O28            1.6253    -2.5269    -0.5694 O.3     
  29 C29            2.6121    -4.3673    -1.7859 C.3     
  30 C30            1.5282    -3.9344    -0.7966 C.3     
  31 C31            1.7185    -4.6789     0.5265 C.3     
  32 C32            0.6070    -4.2813     1.4998 C.3     
  33 O33            3.8997    -4.1670    -1.1994 O.3     
  34 C34            4.9885    -4.5419    -2.0456 C.3     
  35 H35            1.4289     0.0706    -0.3348 H       
  36 H36           -0.7682    -3.5779    -0.6598 H       
  37 H37           -2.8584     0.1311    -0.3086 H       
  38 H38           -2.6954     1.9523    -0.1646 H       
  39 H39           -0.0919     6.5241     0.2552 H       
  40 H40           -2.5382     7.2507     0.3144 H       
  41 H41           -5.4247    -3.6428    -0.9812 H       
  42 H42           -6.7021    -3.5534    -3.0794 H       
  43 H43           -3.6670    -1.0637    -4.8079 H       
  44 H44           -2.4029    -1.1535    -2.7016 H       
  45 H45           -6.2345    -1.9792    -9.4439 H       
  46 H46           -7.7556    -1.1363    -9.0643 H       
  47 H47           -6.1965    -0.3147    -8.8145 H       
  48 H48            2.4830    -5.4223    -2.0275 H       
  49 H49            2.5311    -3.7734    -2.6963 H       
  50 H50            0.5464    -4.1691    -1.2076 H       
  51 H51            1.6779    -5.7534     0.3478 H       
  52 H52            2.6865    -4.4180     0.9542 H       
  53 H53            0.6899    -3.2196     1.7320 H       
  54 H54           -0.3631    -4.4788     1.0438 H       
  55 H55            0.7023    -4.8624     2.4171 H       
  56 H56            4.9087    -5.6006    -2.2926 H       
  57 H57            4.9568    -3.9517    -2.9614 H       
  58 H58            5.9303    -4.3595    -1.5281 H       
@<TRIPOS>BOND
   1    1    2 1
   2    1    8 2
   3    1    9 am
   4    2    3 ar
   5    2    7 ar
   6    3    4 ar
   7    3   35 1
   8    4    5 ar
   9    4   28 1
  10    5    6 ar
  11    5   36 1
  12    6    7 ar
  13    6   15 1
  14    7   37 1
  15    9   11 1
  16    9   38 1
  17   10   11 1
  18   10   14 1
  19   11   12 2
  20   12   13 1
  21   13   14 2
  22   13   39 1
  23   14   40 1
  24   15   16 1
  25   16   17 ar
  26   16   21 ar
  27   17   18 ar
  28   17   41 1
  29   18   19 ar
  30   18   42 1
  31   19   20 ar
  32   19   23 1
  33   20   21 ar
  34   20   43 1
  35   21   44 1
  36   22   23 1
  37   22   26 1
  38   23   24 2
  39   24   25 1
  40   25   26 2
  41   26   27 1
  42   27   45 1
  43   27   46 1
  44   27   47 1
  45   28   30 1
  46   29   30 1
  47   29   33 1
  48   29   48 1
  49   29   49 1
  50   30   31 1
  51   30   50 1
  52   31   32 1
  53   31   51 1
  54   31   52 1
  55   32   53 1
  56   32   54 1
  57   32   55 1
  58   33   34 1
  59   34   56 1
  60   34   57 1
  61   34   58 1

#	End of record

