#	Name: ASD01912099
#	Creating user name:	WinNT
#	Creation time:	15. 06. 2019 19:59

#	Modifying user name:	WinNT
#	Modification time:	15. 06. 2019 19:59

#	Program:	/corina/corina34_cracker 3.40 0067  02.08.2006

@<TRIPOS>MOLECULE
ASD01912099
  51   55    0    0    0
SMALL
NO_CHARGES


@<TRIPOS>ATOM
   1 N1             0.0116     1.3383    -0.2133 N.2     
   2 C2            -0.0024     0.0069    -0.0868 C.2     
   3 N3             1.2211    -0.4122     0.1554 N.2     
   4 N4             2.0446     0.7249     0.1812 N.pl3   
   5 C5             1.2389     1.7863    -0.0543 C.2     
   6 C6             1.6633     3.2025    -0.1217 C.ar    
   7 C7             3.0013     3.5223    -0.3529 C.ar    
   8 C8             3.3907     4.8446    -0.4146 C.ar    
   9 C9             2.4575     5.8521    -0.2478 C.ar    
  10 C10            1.1291     5.5413    -0.0182 C.ar    
  11 C11            0.7261     4.2230     0.0400 C.ar    
  12 C12           -1.2033    -0.8576    -0.2004 C.ar    
  13 C13           -2.4495    -0.2914    -0.4603 C.ar    
  14 C14           -3.5637    -1.0989    -0.5651 C.ar    
  15 C15           -3.4443    -2.4705    -0.4123 C.ar    
  16 C16           -2.2068    -3.0377    -0.1533 C.ar    
  17 C17           -1.0868    -2.2384    -0.0531 C.ar    
  18 C18            3.4903     0.7560     0.4165 C.3     
  19 C19            4.2162     0.5784    -0.8921 C.2     
  20 N20            5.5636     0.5739    -0.9201 N.am    
  21 O21            3.5878     0.4396    -1.9201 O.2     
  22 F22           -4.5376    -3.2575    -0.5157 F       
  23 C23            6.4210     0.4136    -2.1008 C.3     
  24 C24            7.8524     0.4772    -1.6317 C.2     
  25 C25            7.8795     0.6574    -0.3047 C.2     
  26 C26            6.4704     0.7347     0.2231 C.3     
  27 N27            9.1280     0.4182    -2.0619 N.2     
  28 C28            9.9202     0.5568    -1.0380 C.2     
  29 O29            9.1759     0.7069     0.0653 O.3     
  30 C30           11.4264     0.5487    -1.0862 C.3     
  31 C31           -4.9122    -0.4876    -0.8458 C.3     
  32 H32            3.7308     2.7367    -0.4830 H       
  33 H33            4.4264     5.0935    -0.5932 H       
  34 H34            2.7673     6.8855    -0.2966 H       
  35 H35            0.4052     6.3323     0.1113 H       
  36 H36           -0.3113     3.9816     0.2189 H       
  37 H37           -2.5435     0.7779    -0.5792 H       
  38 H38           -2.1182    -4.1075    -0.0341 H       
  39 H39           -0.1227    -2.6813     0.1485 H       
  40 H40            3.7660     1.7137     0.8580 H       
  41 H41            3.7651    -0.0502     1.0967 H       
  42 H42            6.2278    -0.5509    -2.5704 H       
  43 H43            6.2279     1.2180    -2.8105 H       
  44 H44            6.3061     1.7010     0.7001 H       
  45 H45            6.2991    -0.0680     0.9403 H       
  46 H46           11.7906     1.5650    -1.2365 H       
  47 H47           11.8179     0.1576    -0.1472 H       
  48 H48           11.7602    -0.0824    -1.9099 H       
  49 H49           -5.0716    -0.4379    -1.9229 H       
  50 H50           -5.6906    -1.1005    -0.3912 H       
  51 H51           -4.9499     0.5177    -0.4262 H       
@<TRIPOS>BOND
   1    1    2 1
   2    1    5 2
   3    2    3 2
   4    2   12 1
   5    3    4 1
   6    4    5 1
   7    4   18 1
   8    5    6 1
   9    6    7 ar
  10    6   11 ar
  11    7    8 ar
  12    7   32 1
  13    8    9 ar
  14    8   33 1
  15    9   10 ar
  16    9   34 1
  17   10   11 ar
  18   10   35 1
  19   11   36 1
  20   12   13 ar
  21   12   17 ar
  22   13   14 ar
  23   13   37 1
  24   14   15 ar
  25   14   31 1
  26   15   16 ar
  27   15   22 1
  28   16   17 ar
  29   16   38 1
  30   17   39 1
  31   18   19 1
  32   18   40 1
  33   18   41 1
  34   19   20 am
  35   19   21 2
  36   20   23 1
  37   20   26 1
  38   23   24 1
  39   23   42 1
  40   23   43 1
  41   24   25 2
  42   24   27 1
  43   25   26 1
  44   25   29 1
  45   26   44 1
  46   26   45 1
  47   27   28 2
  48   28   29 1
  49   28   30 1
  50   30   46 1
  51   30   47 1
  52   30   48 1
  53   31   49 1
  54   31   50 1
  55   31   51 1

#	End of record

