#	Name: ASD00841802
#	Creating user name:	WinNT
#	Creation time:	15. 06. 2019 18:42

#	Modifying user name:	WinNT
#	Modification time:	15. 06. 2019 18:42

#	Program:	/corina/corina34_cracker 3.40 0067  02.08.2006

@<TRIPOS>MOLECULE
ASD00841802
  89   94    0    0    0
SMALL
NO_CHARGES


@<TRIPOS>ATOM
   1 F1            -0.0914    -3.1419     4.7172 F       
   2 C2            -0.0065     1.3877     0.0272 C.ar    
   3 C3             0.0087     0.0007     0.0135 C.ar    
   4 C4             1.2190    -0.6774    -0.0051 C.ar    
   5 C5             2.4055     0.0297    -0.0100 C.ar    
   6 C6             2.3878     1.4124     0.0042 C.ar    
   7 C7             1.1831     2.0904     0.0223 C.ar    
   8 C8             1.2391    -2.1842    -0.0195 C.3     
   9 C9             0.4942    -2.7130    -1.2267 C.2     
  10 N10            2.6184    -2.6779    -0.0108 N.am    
  11 C11            3.4634    -2.3342    -1.0029 C.2     
  12 N12            4.7590    -2.7005    -0.9417 N.am    
  13 O13            3.0570    -1.6938    -1.9532 O.2     
  14 C14            5.2968    -3.3773     0.2482 C.3     
  15 C15            6.0334    -4.6430    -0.2029 C.3     
  16 N16            7.0320    -4.2883    -1.2202 N.3     
  17 C17            6.3944    -3.7368    -2.4232 C.3     
  18 C18            5.6712    -2.4393    -2.0655 C.3     
  19 C19            7.8763    -5.4431    -1.5542 C.3     
  20 C20            8.8194    -5.0724    -2.7022 C.3     
  21 C21            9.7376    -6.2587    -3.0049 C.3     
  22 N22           10.5102    -6.6002    -1.8037 N.3     
  23 C23            9.6278    -7.0051    -0.7020 C.3     
  24 C24            8.7063    -5.8411    -0.3306 C.3     
  25 C25           11.5019    -7.6442    -2.0948 C.3     
  26 O26            0.7731    -2.5125    -2.3899 O.2     
  27 N27           -0.5336    -3.4465    -0.7674 N.am    
  28 C28            0.4690    -2.7353     1.1585 C.ar    
  29 C29           -0.5770    -3.4799     0.6280 C.ar    
  30 C30            0.6342    -2.6201     2.5206 C.ar    
  31 C31           -0.2500    -3.2519     3.3800 C.ar    
  32 C32           -1.2981    -3.9981     2.8626 C.ar    
  33 C33           -1.4635    -4.1134     1.4958 C.ar    
  34 F34           -2.1615    -4.6150     3.6989 F       
  35 C35           -0.9909    -5.8361    -2.0539 C.ar    
  36 C36           -1.3168    -6.8802    -1.2085 C.ar    
  37 C37           -0.1731    -6.0601    -3.1456 C.ar    
  38 C38            0.3189    -7.3282    -3.3920 C.ar    
  39 C39           -0.0066    -8.3723    -2.5465 C.ar    
  40 C40           -0.8244    -8.1483    -1.4547 C.ar    
  41 H41            0.3777    -9.3630    -2.7391 H       
  42 H42           -1.9557    -6.7052    -0.3556 H       
  43 C43           12.3682    -7.8841    -0.8568 C.3     
  44 C44           10.7820    -8.9403    -2.4726 C.3     
  45 O45           -1.1601    -0.6928     0.0188 O.3     
  46 C46           -3.5698    -0.8754     0.0418 C.3     
  47 C47           -2.3676     0.0711     0.0387 C.3     
  48 S48           -1.6239    -4.2212    -1.7438 S.o2    
  49 O49           -2.8033    -4.3942    -0.9702 O.2     
  50 O50           -1.6046    -3.5368    -2.9890 O.2     
  51 H51           -0.9473     1.9178     0.0372 H       
  52 H52            3.3479    -0.4976    -0.0244 H       
  53 H53            3.3166     1.9635     0.0011 H       
  54 H54            1.1719     3.1703     0.0333 H       
  55 H55            2.9235    -3.2521     0.7090 H       
  56 H56            5.9909    -2.7140     0.7644 H       
  57 H57            4.4792    -3.6479     0.9164 H       
  58 H58            6.5318    -5.0983     0.6529 H       
  59 H59            5.3183    -5.3488    -0.6257 H       
  60 H60            7.1548    -3.5348    -3.1777 H       
  61 H61            5.6744    -4.4551    -2.8151 H       
  62 H62            5.1028    -2.0877    -2.9265 H       
  63 H63            6.3993    -1.6837    -1.7705 H       
  64 H64            7.2463    -6.2798    -1.8561 H       
  65 H65            8.2347    -4.8292    -3.5894 H       
  66 H66            9.4213    -4.2104    -2.4148 H       
  67 H67            9.1357    -7.1163    -3.3056 H       
  68 H68           10.4199    -5.9931    -3.8123 H       
  69 H69            9.0265    -7.8592    -1.0135 H       
  70 H70           10.2304    -7.2816     0.1631 H       
  71 H71            9.3065    -4.9911    -0.0059 H       
  72 H72            8.0409    -6.1470     0.4766 H       
  73 H73           12.1334    -7.3244    -2.9238 H       
  74 H74            1.4523    -2.0381     2.9186 H       
  75 H75           -2.2821    -4.6958     1.0993 H       
  76 H76            0.0812    -5.2444    -3.8062 H       
  77 H77            0.9572    -7.5033    -4.2454 H       
  78 H78           -1.0790    -8.9640    -0.7943 H       
  79 H79           13.1040    -8.6588    -1.0728 H       
  80 H80           12.8811    -6.9608    -0.5877 H       
  81 H81           11.7367    -8.2039    -0.0279 H       
  82 H82           10.1648    -8.7693    -3.3546 H       
  83 H83           11.5178    -9.7149    -2.6886 H       
  84 H84           10.1505    -9.2600    -1.6437 H       
  85 H85           -3.5466    -1.4951    -0.8546 H       
  86 H86           -3.5283    -1.5125     0.9252 H       
  87 H87           -4.4908    -0.2927     0.0570 H       
  88 H88           -2.3908     0.6908     0.9350 H       
  89 H89           -2.4091     0.7082    -0.8448 H       
@<TRIPOS>BOND
   1    1   31 1
   2    2    3 ar
   3    2    7 ar
   4    2   51 1
   5    3    4 ar
   6    3   45 1
   7    4    5 ar
   8    4    8 1
   9    5    6 ar
  10    5   52 1
  11    6    7 ar
  12    6   53 1
  13    7   54 1
  14    8    9 1
  15    8   10 1
  16    8   28 1
  17    9   26 2
  18    9   27 am
  19   10   11 am
  20   10   55 1
  21   11   12 am
  22   11   13 2
  23   12   14 1
  24   12   18 1
  25   14   15 1
  26   14   56 1
  27   14   57 1
  28   15   16 1
  29   15   58 1
  30   15   59 1
  31   16   17 1
  32   16   19 1
  33   17   18 1
  34   17   60 1
  35   17   61 1
  36   18   62 1
  37   18   63 1
  38   19   20 1
  39   19   24 1
  40   19   64 1
  41   20   21 1
  42   20   65 1
  43   20   66 1
  44   21   22 1
  45   21   67 1
  46   21   68 1
  47   22   23 1
  48   22   25 1
  49   23   24 1
  50   23   69 1
  51   23   70 1
  52   24   71 1
  53   24   72 1
  54   25   43 1
  55   25   44 1
  56   25   73 1
  57   27   48 am
  58   27   29 1
  59   28   29 ar
  60   28   30 ar
  61   29   33 ar
  62   30   31 ar
  63   30   74 1
  64   31   32 ar
  65   32   33 ar
  66   32   34 1
  67   33   75 1
  68   35   36 ar
  69   35   37 ar
  70   35   48 1
  71   36   42 1
  72   36   40 ar
  73   37   38 ar
  74   37   76 1
  75   38   39 ar
  76   38   77 1
  77   39   40 ar
  78   39   41 1
  79   40   78 1
  80   43   79 1
  81   43   80 1
  82   43   81 1
  83   44   82 1
  84   44   83 1
  85   44   84 1
  86   45   47 1
  87   46   47 1
  88   46   85 1
  89   46   86 1
  90   46   87 1
  91   47   88 1
  92   47   89 1
  93   48   49 2
  94   48   50 2

#	End of record

