#	Name: ASD07020002
#	Creating user name:	WinNT
#	Creation time:	15. 06. 2019 21:08

#	Modifying user name:	WinNT
#	Modification time:	15. 06. 2019 21:08

#	Program:	/corina/corina34_cracker 3.40 0067  02.08.2006

@<TRIPOS>MOLECULE
ASD07020002
  60   64    0    0    0
SMALL
NO_CHARGES


@<TRIPOS>ATOM
   1 N1             0.0242     1.3262     0.0279 N.am    
   2 C2             0.2411    -0.1092     0.2645 C.3     
   3 C3             0.9788    -0.6957    -0.9438 C.3     
   4 N4             2.1985     0.0837    -1.1944 N.3     
   5 C5             1.8796     1.4738    -1.5466 C.3     
   6 C6             1.1788     2.1492    -0.3630 C.3     
   7 C7            -1.2010     1.8717     0.1604 C.2     
   8 O8            -2.1447     1.1758     0.4793 O.2     
   9 O9            -1.3794     3.1878    -0.0605 O.3     
  10 C10            3.1449    -1.6618    -4.1642 C.ar    
  11 N11            2.4057    -1.0932    -3.2258 N.ar    
  12 C12            2.9751    -0.5113    -2.1752 C.ar    
  13 C13            4.3684    -0.5082    -2.0752 C.ar    
  14 C14            5.1012    -1.1132    -3.0772 C.ar    
  15 N15            4.4660    -1.6743    -4.0960 N.ar    
  16 C16            1.1758    -2.4356    -5.4192 C.2     
  17 N17            0.9734    -3.0430    -6.5557 N.2     
  18 C18            2.1528    -3.2845    -7.1481 C.2     
  19 C19            3.1289    -2.8102    -6.3520 C.2     
  20 N20            2.5150    -2.2687    -5.2504 N.pl3   
  21 C21            1.3530    -2.1511    -0.6563 C.3     
  22 C22            0.0998    -2.9827    -0.5616 C.2     
  23 O23           -0.9808    -2.4783    -0.7825 O.2     
  24 N24            0.1799    -4.2869    -0.2313 N.am    
  25 C25           -1.0243    -5.1212    -0.2449 C.3     
  26 O26            0.3476   -10.4103     1.0764 O.3     
  27 C27           -0.1894   -10.4084     2.4124 C.3     
  28 O28           -0.1787    -9.0172     2.7835 O.3     
  29 C29           -0.2777    -8.3263     1.6104 C.ar    
  30 C30            0.0459    -9.1830     0.5606 C.ar    
  31 C31           -0.6234    -7.0116     1.3451 C.ar    
  32 C32           -0.6473    -6.5520     0.0412 C.ar    
  33 C33           -0.3267    -7.4021    -1.0004 C.ar    
  34 C34            0.0198    -8.7158    -0.7430 C.ar    
  35 C35           -2.7258     3.7068     0.1008 C.3     
  36 H36            0.8434    -0.2453     1.1627 H       
  37 H37           -0.7197    -0.6096     0.3852 H       
  38 H38            0.3327    -0.6522    -1.8206 H       
  39 H39            2.7995     2.0103    -1.7790 H       
  40 H40            1.2210     1.4871    -2.4150 H       
  41 H41            0.8380     3.1419    -0.6572 H       
  42 H42            1.8713     2.2301     0.4749 H       
  43 H43            4.8610    -0.0433    -1.2340 H       
  44 H44            6.1801    -1.1286    -3.0313 H       
  45 H45            0.4085    -2.1148    -4.7302 H       
  46 H46            2.2946    -3.7753    -8.0996 H       
  47 H47            4.1911    -2.8486    -6.5432 H       
  48 H48            1.9809    -2.5308    -1.4624 H       
  49 H49            1.8981    -2.2068     0.2859 H       
  50 H50            1.0347    -4.6732     0.0154 H       
  51 H51           -1.7190    -4.7691     0.5177 H       
  52 H52           -1.4982    -5.0593    -1.2246 H       
  53 H53           -1.2074   -10.7981     2.4165 H       
  54 H54            0.4464   -10.9882     3.0815 H       
  55 H55           -0.8751    -6.3453     2.1570 H       
  56 H56           -0.3465    -7.0394    -2.0175 H       
  57 H57            0.2706    -9.3776    -1.5587 H       
  58 H58           -3.0622     3.5332     1.1230 H       
  59 H59           -2.7300     4.7769    -0.1062 H       
  60 H60           -3.3962     3.1998    -0.5933 H       
@<TRIPOS>BOND
   1    1    2 1
   2    1    6 1
   3    1    7 am
   4    2    3 1
   5    2   36 1
   6    2   37 1
   7    3    4 1
   8    3   21 1
   9    3   38 1
  10    4    5 1
  11    4   12 1
  12    5    6 1
  13    5   39 1
  14    5   40 1
  15    6   41 1
  16    6   42 1
  17    7    8 2
  18    7    9 1
  19    9   35 1
  20   10   11 ar
  21   10   15 ar
  22   10   20 1
  23   11   12 ar
  24   12   13 ar
  25   13   14 ar
  26   13   43 1
  27   14   15 ar
  28   14   44 1
  29   16   17 2
  30   16   20 1
  31   16   45 1
  32   17   18 1
  33   18   19 2
  34   18   46 1
  35   19   20 1
  36   19   47 1
  37   21   22 1
  38   21   48 1
  39   21   49 1
  40   22   23 2
  41   22   24 am
  42   24   25 1
  43   24   50 1
  44   25   32 1
  45   25   51 1
  46   25   52 1
  47   26   27 1
  48   26   30 1
  49   27   28 1
  50   27   53 1
  51   27   54 1
  52   28   29 1
  53   29   30 ar
  54   29   31 ar
  55   30   34 ar
  56   31   32 ar
  57   31   55 1
  58   32   33 ar
  59   33   34 ar
  60   33   56 1
  61   34   57 1
  62   35   58 1
  63   35   59 1
  64   35   60 1

#	End of record

