#	Name: ASD07300171
#	Creating user name:	WinNT
#	Creation time:	15. 06. 2019 21:09

#	Modifying user name:	WinNT
#	Modification time:	15. 06. 2019 21:09

#	Program:	/corina/corina34_cracker 3.40 0067  02.08.2006

@<TRIPOS>MOLECULE
ASD07300171
  41   44    0    0    0
SMALL
NO_CHARGES


@<TRIPOS>ATOM
   1 C1            -0.8645     0.9878    -0.1303 C.ar    
   2 C2            -1.0285    -0.3827    -0.3541 C.ar    
   3 C3             0.0560    -1.2323    -0.1939 C.ar    
   4 C4             1.2711    -0.6807     0.1857 C.ar    
   5 C5             1.3614     0.6833     0.3901 C.ar    
   6 N6             0.3138     1.4687     0.2303 N.ar    
   7 C7            -2.9784     0.6166    -0.7026 C.2     
   8 N8            -2.1024     1.5785    -0.3574 N.am    
   9 N9            -2.3582    -0.5788    -0.7149 N.am    
  10 O10           -4.1516     0.8000    -0.9680 O.2     
  11 C11           -2.9787    -1.8648    -1.0424 C.3     
  12 C12           -3.5438    -2.4973     0.2310 C.3     
  13 C13           -2.3901     2.9469    -0.2451 C.ar    
  14 C14           -3.6738     3.4097    -0.5006 C.ar    
  15 C15           -3.9566     4.7567    -0.3901 C.ar    
  16 C16           -2.9580     5.6476    -0.0241 C.ar    
  17 C17           -1.6748     5.1856     0.2309 C.ar    
  18 C18           -1.3927     3.8379     0.1270 C.ar    
  19 O19           -3.2368     6.9739     0.0842 O.3     
  20 C20           -3.9147     7.3947     1.1816 C.ar    
  21 C21           -4.3122     8.7225     1.2772 C.ar    
  22 C22           -5.0029     9.1395     2.4014 C.ar    
  23 C23           -5.2733     8.2080     3.3961 C.ar    
  24 C24           -4.8475     6.9037     3.2338 C.ar    
  25 N25           -4.1953     6.5356     2.1473 N.ar    
  26 Cl26          -6.1361     8.6779     4.8273 Cl      
  27 H27           -0.0429    -2.2948    -0.3599 H       
  28 H28            2.1377    -1.3109     0.3206 H       
  29 H29            2.3067     1.1138     0.6857 H       
  30 H30           -3.7851    -1.7073    -1.7586 H       
  31 H31           -2.2313    -2.5287    -1.4769 H       
  32 H32           -2.7374    -2.6549     0.9472 H       
  33 H33           -4.2912    -1.8335     0.6656 H       
  34 H34           -4.0055    -3.4542    -0.0126 H       
  35 H35           -4.4511     2.7163    -0.7862 H       
  36 H36           -4.9552     5.1168    -0.5888 H       
  37 H37           -0.8976     5.8796     0.5151 H       
  38 H38           -0.3951     3.4777     0.3306 H       
  39 H39           -4.0848     9.4201     0.4848 H       
  40 H40           -5.3242    10.1655     2.5034 H       
  41 H41           -5.0549     6.1753     4.0038 H       
@<TRIPOS>BOND
   1    1    2 ar
   2    1    6 ar
   3    1    8 1
   4    2    3 ar
   5    2    9 1
   6    3    4 ar
   7    3   27 1
   8    4    5 ar
   9    4   28 1
  10    5    6 ar
  11    5   29 1
  12    7    8 am
  13    7    9 am
  14    7   10 2
  15    8   13 1
  16    9   11 1
  17   11   12 1
  18   11   30 1
  19   11   31 1
  20   12   32 1
  21   12   33 1
  22   12   34 1
  23   13   14 ar
  24   13   18 ar
  25   14   15 ar
  26   14   35 1
  27   15   16 ar
  28   15   36 1
  29   16   17 ar
  30   16   19 1
  31   17   18 ar
  32   17   37 1
  33   18   38 1
  34   19   20 1
  35   20   21 ar
  36   20   25 ar
  37   21   22 ar
  38   21   39 1
  39   22   23 ar
  40   22   40 1
  41   23   24 ar
  42   23   26 1
  43   24   25 ar
  44   24   41 1

#	End of record

