#	Name: ASD05723006
#	Creating user name:	WinNT
#	Creation time:	15. 06. 2019 21:02

#	Modifying user name:	WinNT
#	Modification time:	15. 06. 2019 21:02

#	Program:	/corina/corina34_cracker 3.40 0067  02.08.2006

@<TRIPOS>MOLECULE
ASD05723006
  35   38    0    0    0
SMALL
NO_CHARGES


@<TRIPOS>ATOM
   1 C1            -0.0387     1.3712    -0.1717 C.ar    
   2 C2            -0.0480     0.0156    -0.1420 C.ar    
   3 C3             1.1419    -0.6953     0.1107 C.ar    
   4 N4             1.1451    -2.0307     0.1424 N.ar    
   5 C5             2.2397    -2.7154     0.3751 C.ar    
   6 C6             3.4613    -2.0931     0.6030 C.ar    
   7 C7             3.5382    -0.7067     0.5860 C.ar    
   8 C8             2.3458     0.0195     0.3324 C.ar    
   9 C9             2.3428     1.4168     0.2988 C.ar    
  10 C10            1.1529     2.0910     0.0475 C.ar    
  11 C11            1.1378     3.5592     0.0103 C.2     
  12 C12            0.1484     4.2110    -0.6508 C.2     
  13 C13           -0.1233     5.6543    -0.6759 C.2     
  14 O14            0.5562     6.4590    -0.0666 O.2     
  15 N15           -1.1624     6.0129    -1.4115 N.am    
  16 C16           -1.8679     5.0772    -2.0569 C.2     
  17 O17           -2.8400     5.2625    -2.7641 O.2     
  18 S18           -1.1113     3.5170    -1.6908 S.3     
  19 C19            4.8226    -0.0088     0.8251 C.ar    
  20 C20            5.6202    -0.3293     1.9287 C.ar    
  21 C21            6.8094     0.3459     2.1133 C.ar    
  22 N22            7.1958     1.2811     1.2672 N.ar    
  23 C23            6.4740     1.6138     0.2144 C.ar    
  24 C24            5.2744     0.9850    -0.0497 C.ar    
  25 H25           -0.9556     1.9062    -0.3703 H       
  26 H26           -0.9700    -0.5206    -0.3120 H       
  27 H27            2.1899    -3.7941     0.3904 H       
  28 H28            4.3452    -2.6840     0.7925 H       
  29 H29            3.2564     1.9678     0.4668 H       
  30 H30            1.9144     4.1200     0.5091 H       
  31 H31           -1.4114     6.9478    -1.4821 H       
  32 H32            5.3097    -1.0934     2.6259 H       
  33 H33            7.4321     0.1055     2.9624 H       
  34 H34            6.8287     2.3859    -0.4522 H       
  35 H35            4.6910     1.2590    -0.9162 H       
@<TRIPOS>BOND
   1    1    2 ar
   2    1   10 ar
   3    1   25 1
   4    2    3 ar
   5    2   26 1
   6    3    4 ar
   7    3    8 ar
   8    4    5 ar
   9    5    6 ar
  10    5   27 1
  11    6    7 ar
  12    6   28 1
  13    7    8 ar
  14    7   19 1
  15    8    9 ar
  16    9   10 ar
  17    9   29 1
  18   10   11 1
  19   11   12 2
  20   11   30 1
  21   12   13 1
  22   12   18 1
  23   13   14 2
  24   13   15 am
  25   15   16 am
  26   15   31 1
  27   16   17 2
  28   16   18 1
  29   19   20 ar
  30   19   24 ar
  31   20   21 ar
  32   20   32 1
  33   21   22 ar
  34   21   33 1
  35   22   23 ar
  36   23   24 ar
  37   23   34 1
  38   24   35 1

#	End of record

