#	Name: ASD07300689
#	Creating user name:	WinNT
#	Creation time:	15. 06. 2019 21:10

#	Modifying user name:	WinNT
#	Modification time:	15. 06. 2019 21:10

#	Program:	/corina/corina34_cracker 3.40 0067  02.08.2006

@<TRIPOS>MOLECULE
ASD07300689
  40   41    0    0    0
SMALL
NO_CHARGES


@<TRIPOS>ATOM
   1 C1            -0.0184     1.5028     0.0103 C.3     
   2 C2             0.0021    -0.0041     0.0020 C.2     
   3 C3             1.3172    -0.7397    -0.0145 C.3     
   4 C4             1.0581    -2.2476    -0.0201 C.3     
   5 O5            -1.0354    -0.6220     0.0086 O.2     
   6 N6             2.3366    -2.9628    -0.0362 N.pl3   
   7 N7             3.3597    -2.7883    -0.9749 N.2     
   8 C8             4.3454    -3.5893    -0.6778 C.2     
   9 C9             3.9852    -4.3158     0.4773 C.2     
  10 C10            2.7269    -3.8917     0.8502 C.2     
  11 O11            6.1685    -5.8544     0.8441 O.3     
  12 B12            4.8567    -5.3996     1.2057 Du      
  13 O13            4.5161    -6.1518     2.3789 O.3     
  14 C14            5.7397    -6.2130     3.1416 C.3     
  15 C15            6.8601    -6.0113     2.1010 C.3     
  16 C16            7.7740    -7.2376     2.0572 C.3     
  17 C17            7.6687    -4.7536     2.4253 C.3     
  18 C18            5.7739    -5.0947     4.1852 C.3     
  19 C19            5.8791    -7.5787     3.8172 C.3     
  20 H20            1.0042     1.8801     0.0026 H       
  21 H21           -0.5455     1.8639    -0.8728 H       
  22 H22           -0.5286     1.8543     0.9071 H       
  23 H23            1.8766    -0.4639    -0.9084 H       
  24 H24            1.8936    -0.4734     0.8715 H       
  25 H25            0.4987    -2.5235     0.8738 H       
  26 H26            0.4817    -2.5139    -0.9061 H       
  27 H27            5.2744    -3.6810    -1.2211 H       
  28 H28            2.1590    -4.2441     1.6986 H       
  29 H29            8.5243    -7.1039     1.2780 H       
  30 H30            8.2686    -7.3568     3.0212 H       
  31 H31            7.1801    -8.1258     1.8413 H       
  32 H32            7.0008    -3.8933     2.4684 H       
  33 H33            8.1635    -4.8781     3.3885 H       
  34 H34            8.4179    -4.5935     1.6499 H       
  35 H35            4.9419    -5.2191     4.8784 H       
  36 H36            6.7143    -5.1389     4.7346 H       
  37 H37            5.6897    -4.1293     3.6862 H       
  38 H38            5.8690    -8.3618     3.0591 H       
  39 H39            6.8193    -7.6176     4.3673 H       
  40 H40            5.0483    -7.7296     4.5065 H       
@<TRIPOS>BOND
   1    1    2 1
   2    1   20 1
   3    1   21 1
   4    1   22 1
   5    2    3 1
   6    2    5 2
   7    3    4 1
   8    3   23 1
   9    3   24 1
  10    4    6 1
  11    4   25 1
  12    4   26 1
  13    6    7 1
  14    6   10 1
  15    7    8 2
  16    8    9 1
  17    8   27 1
  18    9   10 2
  19    9   12 1
  20   10   28 1
  21   11   12 1
  22   11   15 1
  23   12   13 1
  24   13   14 1
  25   14   15 1
  26   14   18 1
  27   14   19 1
  28   15   16 1
  29   15   17 1
  30   16   29 1
  31   16   30 1
  32   16   31 1
  33   17   32 1
  34   17   33 1
  35   17   34 1
  36   18   35 1
  37   18   36 1
  38   18   37 1
  39   19   38 1
  40   19   39 1
  41   19   40 1

#	End of record

