#	Name: ASD01870302
#	Creating user name:	WinNT
#	Creation time:	15. 06. 2019 19:39

#	Modifying user name:	WinNT
#	Modification time:	15. 06. 2019 19:39

#	Program:	/corina/corina34_cracker 3.40 0067  02.08.2006

@<TRIPOS>MOLECULE
ASD01870302
  53   55    0    0    0
SMALL
NO_CHARGES


@<TRIPOS>ATOM
   1 C1            -0.0180     1.4731     0.0101 C.ar    
   2 C2             0.0021    -0.0041     0.0020 C.2     
   3 N3            -1.1558    -0.6938     0.0094 N.am    
   4 C4            -1.1360    -2.1586     0.0013 C.3     
   5 C5            -2.5713    -2.6882     0.0122 C.3     
   6 N6            -2.5514    -4.1570     0.0041 N.3     
   7 C7            -3.9155    -4.7021     0.0142 C.3     
   8 O8             1.0630    -0.5975    -0.0113 O.2     
   9 C9            -3.9090    -6.1033    -0.6038 C.3     
  10 N10           -5.5631    -6.8770     1.0027 N.am    
  11 C11           -5.3078    -6.7212    -0.4498 C.3     
  12 C12           -5.7869    -5.4868     1.4679 C.3     
  13 C13           -4.4237    -4.7768     1.4569 C.3     
  14 C14           -6.6607    -4.8512     0.3621 C.3     
  15 C15           -6.3435    -5.6685    -0.9077 C.3     
  16 C16           -5.5861    -8.0127     1.7279 C.2     
  17 O17           -5.3802    -9.0821     1.1889 O.2     
  18 O18           -5.8373    -7.9624     3.0497 O.3     
  19 C19           -5.8465    -9.2246     3.7675 C.3     
  20 C20           -6.1472    -8.9685     5.2456 C.3     
  21 C21            1.1802     2.1896     0.0025 C.ar    
  22 C22            1.1548     3.5725     0.0097 C.ar    
  23 C23           -0.0620     4.2459     0.0250 C.ar    
  24 C24           -1.2514     3.5357     0.0330 C.ar    
  25 C25           -1.2355     2.1569     0.0196 C.ar    
  26 O26            2.3196     4.2738     0.0024 O.3     
  27 F27            2.7309     4.5332    -1.1056 F       
  28 F28           -0.0842     5.5967     0.0324 F       
  29 H29           -2.0023    -0.2203     0.0200 H       
  30 H30           -0.6258    -2.5101    -0.8955 H       
  31 H31           -0.6088    -2.5197     0.8844 H       
  32 H32           -3.0815    -2.3367     0.9090 H       
  33 H33           -3.0985    -2.3271    -0.8709 H       
  34 H34           -2.0279    -4.5072    -0.7842 H       
  35 H35           -4.5700    -4.0525    -0.5670 H       
  36 H36           -3.6545    -6.0347    -1.6614 H       
  37 H37           -3.1764    -6.7256    -0.0898 H       
  38 H38           -5.4010    -7.6645    -0.9880 H       
  39 H39           -6.2692    -5.4519     2.4447 H       
  40 H40           -3.7147    -5.3384     2.0652 H       
  41 H41           -4.5337    -3.7692     1.8580 H       
  42 H42           -7.7171    -4.9387     0.6158 H       
  43 H43           -6.3893    -3.8054     0.2181 H       
  44 H44           -5.9160    -5.0249    -1.6766 H       
  45 H45           -7.2438    -6.1582    -1.2788 H       
  46 H46           -6.6137    -9.8754     3.3481 H       
  47 H47           -4.8720    -9.7036     3.6726 H       
  48 H48           -5.3799    -8.3176     5.6650 H       
  49 H49           -7.1216    -8.4894     5.3405 H       
  50 H50           -6.1541    -9.9159     5.7845 H       
  51 H51            2.1245     1.6655    -0.0085 H       
  52 H52           -2.1936     4.0633     0.0451 H       
  53 H53           -2.1644     1.6060     0.0255 H       
@<TRIPOS>BOND
   1    1    2 1
   2    1   21 ar
   3    1   25 ar
   4    2    3 am
   5    2    8 2
   6    3    4 1
   7    3   29 1
   8    4    5 1
   9    4   30 1
  10    4   31 1
  11    5    6 1
  12    5   32 1
  13    5   33 1
  14    6    7 1
  15    6   34 1
  16    7    9 1
  17    7   13 1
  18    7   35 1
  19    9   11 1
  20    9   36 1
  21    9   37 1
  22   10   11 1
  23   10   12 1
  24   10   16 am
  25   11   15 1
  26   11   38 1
  27   12   14 1
  28   12   13 1
  29   12   39 1
  30   13   40 1
  31   13   41 1
  32   14   15 1
  33   14   42 1
  34   14   43 1
  35   15   44 1
  36   15   45 1
  37   16   17 2
  38   16   18 1
  39   18   19 1
  40   19   20 1
  41   19   46 1
  42   19   47 1
  43   20   48 1
  44   20   49 1
  45   20   50 1
  46   21   22 ar
  47   21   51 1
  48   22   23 ar
  49   22   26 1
  50   23   24 ar
  51   23   28 1
  52   24   25 ar
  53   24   52 1
  54   25   53 1
  55   26   27 1

#	End of record

