#	Name: ASD01148265
#	Creating user name:	WinNT
#	Creation time:	15. 06. 2019 19:02

#	Modifying user name:	WinNT
#	Modification time:	15. 06. 2019 19:02

#	Program:	/corina/corina34_cracker 3.40 0067  02.08.2006

@<TRIPOS>MOLECULE
ASD01148265
  55   58    0    0    0
SMALL
NO_CHARGES


@<TRIPOS>ATOM
   1 C1            -0.0167     1.3802     0.0096 C.ar    
   2 C2             0.0021    -0.0041     0.0020 C.ar    
   3 C3            -1.1870    -0.7112     0.0101 C.ar    
   4 C4            -2.3926    -0.0358     0.0257 C.ar    
   5 C5            -2.4113     1.3467     0.0333 C.ar    
   6 C6            -1.2244     2.0547     0.0306 C.ar    
   7 C7            -3.7267     2.0819     0.0498 C.3     
   8 O8            -4.7310     1.3273     0.7580 O.3     
   9 C9            -3.6330     3.3655     0.9089 C.3     
  10 C10           -4.1234     2.8918     2.2639 C.2     
  11 N11           -4.7174     1.7567     2.1051 N.2     
  12 C12           -3.9506     3.6058     3.5442 C.ar    
  13 C13           -4.4540     3.0543     4.7252 C.ar    
  14 C14           -3.2787     4.8304     3.5761 C.ar    
  15 C15           -3.1173     5.4959     4.7703 C.ar    
  16 C16           -3.6252     4.9470     5.9501 C.ar    
  17 C17           -4.2923     3.7201     5.9192 C.ar    
  18 C18           -3.4513     5.6614     7.2322 C.2     
  19 O19           -2.8664     6.7267     7.2599 O.2     
  20 N20           -3.9413     5.1318     8.3706 N.am    
  21 C21           -4.1874     2.4065    -1.3726 C.3     
  22 F22           -4.3294     1.2193    -2.0991 F       
  23 F23           -5.4163     3.0733    -1.3241 F       
  24 F24           -3.2377     3.2235    -1.9954 F       
  25 Cl25           1.5168    -0.8520    -0.0182 Cl      
  26 Cl26           1.4744     2.2691     0.0002 Cl      
  27 N27           -3.7765     5.8091     9.5859 N.pl3   
  28 C28           -4.5903     6.9907     9.8822 C.3     
  29 C29           -2.8363     5.3577    10.5150 C.ar    
  30 C30           -2.6716     6.0280    11.7205 C.ar    
  31 C31           -1.7415     5.5787    12.6371 C.ar    
  32 C32           -0.9745     4.4629    12.3560 C.ar    
  33 C33           -1.1355     3.7936    11.1567 C.ar    
  34 C34           -2.0679     4.2341    10.2381 C.ar    
  35 C35           -1.1675    -2.2181     0.0013 C.3     
  36 F36           -2.4803    -2.7015     0.0118 F       
  37 F37           -0.5137    -2.6693    -1.1503 F       
  38 F38           -0.4905    -2.6823     1.1341 F       
  39 H39           -3.3206    -0.5882     0.0316 H       
  40 H40           -1.2398     3.1346     0.0365 H       
  41 H41           -2.6025     3.7152     0.9709 H       
  42 H42           -4.2840     4.1447     0.5126 H       
  43 H43           -4.9701     2.1059     4.7013 H       
  44 H44           -2.8857     5.2547     2.6640 H       
  45 H45           -2.5976     6.4423     4.7950 H       
  46 H46           -4.6850     3.2958     6.8314 H       
  47 H47           -4.4081     4.2818     8.3484 H       
  48 H48           -5.5063     6.6837    10.3869 H       
  49 H49           -4.0287     7.6661    10.5276 H       
  50 H50           -4.8413     7.5014     8.9526 H       
  51 H51           -3.2701     6.8997    11.9405 H       
  52 H52           -1.6127     6.0996    13.5744 H       
  53 H53           -0.2478     4.1137    13.0746 H       
  54 H54           -0.5347     2.9227    10.9401 H       
  55 H55           -2.1932     3.7109     9.3016 H       
@<TRIPOS>BOND
   1    1    2 ar
   2    1   26 1
   3    1    6 ar
   4    2    3 ar
   5    2   25 1
   6    3    4 ar
   7    3   35 1
   8    4    5 ar
   9    4   39 1
  10    5    6 ar
  11    5    7 1
  12    6   40 1
  13    7    8 1
  14    7    9 1
  15    7   21 1
  16    8   11 1
  17    9   10 1
  18    9   41 1
  19    9   42 1
  20   10   11 2
  21   10   12 1
  22   12   13 ar
  23   12   14 ar
  24   13   17 ar
  25   13   43 1
  26   14   15 ar
  27   14   44 1
  28   15   16 ar
  29   15   45 1
  30   16   17 ar
  31   16   18 1
  32   17   46 1
  33   18   19 2
  34   18   20 am
  35   20   27 1
  36   20   47 1
  37   21   22 1
  38   21   23 1
  39   21   24 1
  40   27   28 1
  41   27   29 1
  42   28   48 1
  43   28   49 1
  44   28   50 1
  45   29   30 ar
  46   29   34 ar
  47   30   31 ar
  48   30   51 1
  49   31   32 ar
  50   31   52 1
  51   32   33 ar
  52   32   53 1
  53   33   34 ar
  54   33   54 1
  55   34   55 1
  56   35   36 1
  57   35   37 1
  58   35   38 1

#	End of record

