#	Name: ASD03330455
#	Creating user name:	WinNT
#	Creation time:	15. 06. 2019 20:37

#	Modifying user name:	WinNT
#	Modification time:	15. 06. 2019 20:37

#	Program:	/corina/corina34_cracker 3.40 0067  02.08.2006

@<TRIPOS>MOLECULE
ASD03330455
  54   55    0    0    0
SMALL
NO_CHARGES


@<TRIPOS>ATOM
   1 C1            -0.2652     2.0915    -0.6956 C.3     
   2 N2            -0.1035     0.6544    -0.4346 N.3     
   3 C3             0.3498    -0.0591    -1.6423 C.3     
   4 C4             1.5377     0.6808    -2.2011 C.2     
   5 N5             1.8734     1.9531    -1.8407 N.pl3   
   6 C6             1.1110     2.7463    -0.8726 C.3     
   7 C7             2.4539     0.2669    -3.1119 C.2     
   8 N8             3.3347     1.2758    -3.2977 N.2     
   9 C9             2.9922     2.2927    -2.5356 C.2     
  10 C10            3.7005     3.5811    -2.4501 C.2     
  11 C11            2.4842    -1.0470    -3.7787 C.2     
  12 O12            1.6318    -1.8769    -3.5261 O.2     
  13 C13            3.4867    -2.6351    -5.3312 C.3     
  14 N14            3.4566    -1.3290    -4.6683 N.am    
  15 C15           -1.3470     0.0707     0.0860 C.3     
  16 C16            4.7877     3.7914    -3.1840 C.2     
  17 C17            4.2135    -3.6432    -4.4387 C.3     
  18 C18            3.4089    -3.8615    -3.1558 C.3     
  19 C19            4.3573    -4.9723    -5.1829 C.3     
  20 C20            5.6009    -3.1040    -4.0851 C.3     
  21 C21            4.2121    -2.5143    -6.6466 C.2     
  22 O22            4.8061    -1.4928    -6.9199 O.2     
  23 N23            4.2007    -3.5413    -7.5192 N.am    
  24 C24            4.9719    -3.4553    -8.7618 C.3     
  25 C25            5.5125     5.1097    -3.0965 C.3     
  26 H26           -0.8522     2.2311    -1.6033 H       
  27 H27           -0.7822     2.5563     0.1440 H       
  28 H28            0.6389    -1.0773    -1.3821 H       
  29 H29           -0.4518    -0.0801    -2.3806 H       
  30 H30            0.9892     3.7634    -1.2449 H       
  31 H31            1.6355     2.7640     0.0828 H       
  32 H32            3.3360     4.3549    -1.7908 H       
  33 H33            2.4668    -2.9761    -5.5087 H       
  34 H34            4.1365    -0.6671    -4.8697 H       
  35 H35           -2.1607     0.2672    -0.6121 H       
  36 H36           -1.2216    -1.0056     0.2042 H       
  37 H37           -1.5814     0.5174     1.0522 H       
  38 H38            5.1522     3.0175    -3.8433 H       
  39 H39            2.4204    -4.2457    -3.4078 H       
  40 H40            3.9266    -4.5798    -2.5200 H       
  41 H41            3.3064    -2.9147    -2.6256 H       
  42 H42            4.8322    -4.7985    -6.1485 H       
  43 H43            4.9707    -5.6540    -4.5938 H       
  44 H44            3.3715    -5.4112    -5.3366 H       
  45 H45            5.4985    -2.1571    -3.5549 H       
  46 H46            6.1187    -3.8222    -3.4493 H       
  47 H47            6.1741    -2.9485    -4.9990 H       
  48 H48            3.6819    -4.3374    -7.3245 H       
  49 H49            4.6211    -2.6067    -9.3492 H       
  50 H50            6.0277    -3.3220    -8.5257 H       
  51 H51            4.8408    -4.3730    -9.3351 H       
  52 H52            4.8383     5.9151    -3.3880 H       
  53 H53            5.8504     5.2713    -2.0729 H       
  54 H54            6.3730     5.0964    -3.7654 H       
@<TRIPOS>BOND
   1    1    2 1
   2    1    6 1
   3    1   26 1
   4    1   27 1
   5    2    3 1
   6    2   15 1
   7    3    4 1
   8    3   28 1
   9    3   29 1
  10    4    5 1
  11    4    7 2
  12    5    6 1
  13    5    9 1
  14    6   30 1
  15    6   31 1
  16    7    8 1
  17    7   11 1
  18    8    9 2
  19    9   10 1
  20   10   16 2
  21   10   32 1
  22   11   12 2
  23   11   14 am
  24   13   14 1
  25   13   17 1
  26   13   21 1
  27   13   33 1
  28   14   34 1
  29   15   35 1
  30   15   36 1
  31   15   37 1
  32   16   25 1
  33   16   38 1
  34   17   18 1
  35   17   19 1
  36   17   20 1
  37   18   39 1
  38   18   40 1
  39   18   41 1
  40   19   42 1
  41   19   43 1
  42   19   44 1
  43   20   45 1
  44   20   46 1
  45   20   47 1
  46   21   22 2
  47   21   23 am
  48   23   24 1
  49   23   48 1
  50   24   49 1
  51   24   50 1
  52   24   51 1
  53   25   52 1
  54   25   53 1
  55   25   54 1

#	End of record

