#	Name: ASD01915324
#	Creating user name:	WinNT
#	Creation time:	15. 06. 2019 20:05

#	Modifying user name:	WinNT
#	Modification time:	15. 06. 2019 20:05

#	Program:	/corina/corina34_cracker 3.40 0067  02.08.2006

@<TRIPOS>MOLECULE
ASD01915324
  41   44    0    0    0
SMALL
NO_CHARGES


@<TRIPOS>ATOM
   1 N1             0.1022     1.3129     0.2289 N.2     
   2 N2             0.1619    -0.0773     0.0369 N.pl3   
   3 N3             1.3648    -0.3539    -0.3369 N.2     
   4 N4             2.0560     0.7288    -0.3951 N.2     
   5 C5             1.3010     1.7680    -0.0515 C.2     
   6 C6             1.7418     3.2080     0.0054 C.3     
   7 C7            -0.8870    -0.9907     0.2176 C.ar    
   8 C8            -0.6779    -2.3432    -0.0118 C.ar    
   9 C9            -1.7148    -3.2417     0.1674 C.ar    
  10 C10           -2.9592    -2.7912     0.5751 C.ar    
  11 C11           -3.1681    -1.4437     0.8039 C.ar    
  12 C12           -2.1347    -0.5437     0.6319 C.ar    
  13 F13           -1.5132    -4.5588    -0.0559 F       
  14 N14            2.7279     3.3791     1.0810 N.am    
  15 C15            3.4031     4.6765     1.2206 C.3     
  16 C16            4.0340     5.0512    -0.1242 C.3     
  17 C17            2.9605     5.0154    -1.2144 C.3     
  18 C18            2.3913     3.5991    -1.3258 C.3     
  19 C19            3.0075     2.3653     1.9240 C.2     
  20 O20            2.3569     1.3378     1.8769 O.2     
  21 C21            4.0949     2.5003     2.8972 C.2     
  22 O22            4.9734     3.5224     2.9679 O.3     
  23 C23            5.8238     3.3080     3.9805 C.2     
  24 C24            5.5016     2.1378     4.5785 C.2     
  25 C25            4.3929     1.6165     3.8953 C.2     
  26 Br26           7.2412     4.4516     4.4895 Br      
  27 H27            0.8794     3.8469     0.1953 H       
  28 H28            0.2927    -2.6940    -0.3301 H       
  29 H29           -3.7678    -3.4934     0.7143 H       
  30 H30           -4.1396    -1.0950     1.1218 H       
  31 H31           -2.2994     0.5085     0.8109 H       
  32 H32            2.6772     5.4371     1.5082 H       
  33 H33            4.1804     4.6040     1.9813 H       
  34 H34            4.4553     6.0545    -0.0614 H       
  35 H35            4.8229     4.3393    -0.3669 H       
  36 H36            2.1599     5.7094    -0.9586 H       
  37 H37            3.4015     5.3055    -2.1680 H       
  38 H38            3.1957     2.9009    -1.5572 H       
  39 H39            1.6434     3.5689    -2.1182 H       
  40 H40            6.0016     1.6909     5.4251 H       
  41 H41            3.8782     0.6922     4.1125 H       
@<TRIPOS>BOND
   1    1    2 1
   2    1    5 2
   3    2    3 1
   4    2    7 1
   5    3    4 2
   6    4    5 1
   7    5    6 1
   8    6   14 1
   9    6   18 1
  10    6   27 1
  11    7    8 ar
  12    7   12 ar
  13    8    9 ar
  14    8   28 1
  15    9   10 ar
  16    9   13 1
  17   10   11 ar
  18   10   29 1
  19   11   12 ar
  20   11   30 1
  21   12   31 1
  22   14   15 1
  23   14   19 am
  24   15   16 1
  25   15   32 1
  26   15   33 1
  27   16   17 1
  28   16   34 1
  29   16   35 1
  30   17   18 1
  31   17   36 1
  32   17   37 1
  33   18   38 1
  34   18   39 1
  35   19   20 2
  36   19   21 1
  37   21   22 1
  38   21   25 2
  39   22   23 1
  40   23   24 2
  41   23   26 1
  42   24   25 1
  43   24   40 1
  44   25   41 1

#	End of record

