#	Name: ASD03540580
#	Creating user name:	WinNT
#	Creation time:	15. 06. 2019 20:43

#	Modifying user name:	WinNT
#	Modification time:	15. 06. 2019 20:43

#	Program:	/corina/corina34_cracker 3.40 0067  02.08.2006

@<TRIPOS>MOLECULE
ASD03540580
  54   58    0    0    0
SMALL
NO_CHARGES


@<TRIPOS>ATOM
   1 N1            -0.0164     1.3608     0.0095 N.pl3   
   2 C2             0.0021    -0.0041     0.0020 C.2     
   3 N3             1.1903    -0.7096    -0.0132 N.am    
   4 C4             2.3778    -0.0689    -0.0205 C.2     
   5 C5             2.3905     1.4059    -0.0126 C.ar    
   6 C6             3.5856     2.1159    -0.0186 C.ar    
   7 C7             3.5564     3.5090    -0.0098 C.ar    
   8 C8             2.3300     4.1837     0.0049 C.ar    
   9 C9             1.1468     3.4801     0.0112 C.ar    
  10 C10            1.1624     2.0911     0.0022 C.ar    
  11 N11           -2.0330     0.6196     0.0248 N.2     
  12 N12           -1.2514    -0.4005     0.0119 N.2     
  13 C13           -1.3340     1.7207     0.0296 C.2     
  14 C14            4.8199     4.2740    -0.0155 C.2     
  15 O15            5.8851     3.6882    -0.0278 O.2     
  16 N16            4.7919     5.6214    -0.0070 N.am    
  17 O17            3.4195    -0.6967    -0.0330 O.2     
  18 C18            1.1602    -2.1743    -0.0209 C.3     
  19 C19            1.1364    -2.6687    -1.4443 C.ar    
  20 C20            2.3223    -2.9201    -2.1086 C.ar    
  21 C21            2.3004    -3.3736    -3.4143 C.ar    
  22 C22            1.0926    -3.5762    -4.0554 C.ar    
  23 C23           -0.0933    -3.3257    -3.3908 C.ar    
  24 C24           -0.0715    -2.8763    -2.0837 C.ar    
  25 C25            6.0450     6.3802    -0.0127 C.3     
  26 C26            5.7389     7.8558    -0.0011 C.ar    
  27 C27            5.6085     8.5242     1.2022 C.ar    
  28 C28            5.3279     9.8768     1.2155 C.ar    
  29 C29            5.1769    10.5644     0.0201 C.ar    
  30 C30            5.3082     9.8915    -1.1860 C.ar    
  31 C31            5.5945     8.5400    -1.1939 C.ar    
  32 O32            4.9004    11.8950     0.0305 O.3     
  33 C33            4.7582    12.5380    -1.2378 C.3     
  34 H34            4.5298     1.5916    -0.0295 H       
  35 H35            2.3119     5.2635     0.0116 H       
  36 H36            0.2051     4.0088     0.0233 H       
  37 H37           -1.7237     2.7278     0.0403 H       
  38 H38            3.9419     6.0888     0.0028 H       
  39 H39            2.0474    -2.5586     0.4824 H       
  40 H40            0.2679    -2.5221     0.4996 H       
  41 H41            3.2659    -2.7618    -1.6077 H       
  42 H42            3.2269    -3.5693    -3.9335 H       
  43 H43            1.0755    -3.9298    -5.0757 H       
  44 H44           -1.0370    -3.4837    -3.8918 H       
  45 H45           -0.9981    -2.6842    -1.5632 H       
  46 H46            6.6292     6.1234     0.8710 H       
  47 H47            6.6146     6.1343    -0.9089 H       
  48 H48            5.7258     7.9883     2.1325 H       
  49 H49            5.2259    10.3984     2.1556 H       
  50 H50            5.1911    10.4246    -2.1179 H       
  51 H51            5.7015     8.0166    -2.1325 H       
  52 H52            5.6847    12.4358    -1.8028 H       
  53 H53            3.9420    12.0735    -1.7911 H       
  54 H54            4.5395    13.5950    -1.0867 H       
@<TRIPOS>BOND
   1    1    2 1
   2    1   10 1
   3    1   13 1
   4    2    3 1
   5    2   12 2
   6    3    4 am
   7    3   18 1
   8    4    5 1
   9    4   17 2
  10    5    6 ar
  11    5   10 ar
  12    6    7 ar
  13    6   34 1
  14    7    8 ar
  15    7   14 1
  16    8    9 ar
  17    8   35 1
  18    9   10 ar
  19    9   36 1
  20   11   12 1
  21   11   13 2
  22   13   37 1
  23   14   15 2
  24   14   16 am
  25   16   25 1
  26   16   38 1
  27   18   19 1
  28   18   39 1
  29   18   40 1
  30   19   20 ar
  31   19   24 ar
  32   20   21 ar
  33   20   41 1
  34   21   22 ar
  35   21   42 1
  36   22   23 ar
  37   22   43 1
  38   23   24 ar
  39   23   44 1
  40   24   45 1
  41   25   26 1
  42   25   46 1
  43   25   47 1
  44   26   27 ar
  45   26   31 ar
  46   27   28 ar
  47   27   48 1
  48   28   29 ar
  49   28   49 1
  50   29   30 ar
  51   29   32 1
  52   30   31 ar
  53   30   50 1
  54   31   51 1
  55   32   33 1
  56   33   52 1
  57   33   53 1
  58   33   54 1

#	End of record

