#	Name: ASD01000109
#	Creating user name:	WinNT
#	Creation time:	15. 06. 2019 18:54

#	Modifying user name:	WinNT
#	Modification time:	15. 06. 2019 18:54

#	Program:	/corina/corina34_cracker 3.40 0067  02.08.2006

@<TRIPOS>MOLECULE
ASD01000109
  47   50    0    0    0
SMALL
NO_CHARGES


@<TRIPOS>ATOM
   1 C1            -0.0166     1.3751     0.0096 C.ar    
   2 C2             0.0021    -0.0041     0.0020 C.ar    
   3 C3             1.2079    -0.6936    -0.0129 C.ar    
   4 C4             2.3932     0.0063    -0.0266 C.ar    
   5 C5             2.3723     1.3952    -0.0161 C.ar    
   6 C6             1.1740     2.0780     0.0020 C.ar    
   7 C7             1.1553    -2.1990    -0.0048 C.3     
   8 C8             2.4915    -2.7856    -0.4556 C.3     
   9 C9             3.6087    -2.1351     0.3685 C.3     
  10 C10            3.7364    -0.6748    -0.0604 C.3     
  11 C11            0.8432    -2.6853     1.4118 C.3     
  12 C12            0.0516    -2.6703    -0.9538 C.3     
  13 N13            4.6522     0.0177     0.8496 N.pl3   
  14 C14            5.3396     1.1534     0.4173 C.ar    
  15 C15            5.1483     1.6246    -0.8875 C.ar    
  16 C16            6.1946     1.8024     1.2805 C.ar    
  17 C17            6.8839     2.9448     0.8423 C.ar    
  18 C18            6.6883     3.4114    -0.4818 C.ar    
  19 C19            5.8038     2.7279    -1.3346 C.ar    
  20 C20            7.7648     3.6349     1.6935 C.ar    
  21 C21            8.4164     4.7388     1.2367 C.ar    
  22 C22            8.2240     5.1976    -0.0652 C.ar    
  23 C23            7.3792     4.5552    -0.9172 C.ar    
  24 O24            4.8420    -2.8163     0.1295 O.3     
  25 H25           -0.9581     1.9042     0.0169 H       
  26 H26           -0.9284    -0.5523     0.0081 H       
  27 H27            3.3020     1.9448    -0.0218 H       
  28 H28            1.1658     3.1579     0.0098 H       
  29 H29            2.4936    -3.8630    -0.2908 H       
  30 H30            2.6462    -2.5755    -1.5140 H       
  31 H31            3.3601    -2.1860     1.4285 H       
  32 H32            4.1361    -0.6313    -1.0735 H       
  33 H33           -0.1193    -2.2845     1.7297 H       
  34 H34            0.8043    -3.7745     1.4218 H       
  35 H35            1.6221    -2.3433     2.0933 H       
  36 H36            0.2649    -2.3176    -1.9628 H       
  37 H37            0.0104    -3.7595    -0.9507 H       
  38 H38           -0.9069    -2.2696    -0.6238 H       
  39 H39            4.7810    -0.3129     1.7523 H       
  40 H40            4.4706     1.1037    -1.5477 H       
  41 H41            6.3336     1.4357     2.2868 H       
  42 H42            5.6489     3.0766    -2.3449 H       
  43 H43            7.9232     3.2909     2.7050 H       
  44 H44            9.0922     5.2673     1.8927 H       
  45 H45            8.7534     6.0762    -0.4031 H       
  46 H46            7.2409     4.9222    -1.9235 H       
  47 H47            4.8253    -3.7541     0.3650 H       
@<TRIPOS>BOND
   1    1    2 ar
   2    1    6 ar
   3    1   25 1
   4    2    3 ar
   5    2   26 1
   6    3    4 ar
   7    3    7 1
   8    4    5 ar
   9    4   10 1
  10    5    6 ar
  11    5   27 1
  12    6   28 1
  13    7    8 1
  14    7   11 1
  15    7   12 1
  16    8    9 1
  17    8   29 1
  18    8   30 1
  19    9   10 1
  20    9   24 1
  21    9   31 1
  22   10   13 1
  23   10   32 1
  24   11   33 1
  25   11   34 1
  26   11   35 1
  27   12   36 1
  28   12   37 1
  29   12   38 1
  30   13   14 1
  31   13   39 1
  32   14   15 ar
  33   14   16 ar
  34   15   19 ar
  35   15   40 1
  36   16   17 ar
  37   16   41 1
  38   17   18 ar
  39   17   20 ar
  40   18   19 ar
  41   18   23 ar
  42   19   42 1
  43   20   21 ar
  44   20   43 1
  45   21   22 ar
  46   21   44 1
  47   22   23 ar
  48   22   45 1
  49   23   46 1
  50   24   47 1

#	End of record

