#	Name: ASD01916118
#	Creating user name:	WinNT
#	Creation time:	15. 06. 2019 20:06

#	Modifying user name:	WinNT
#	Modification time:	15. 06. 2019 20:06

#	Program:	/corina/corina34_cracker 3.40 0067  02.08.2006

@<TRIPOS>MOLECULE
ASD01916118
  48   50    0    0    0
SMALL
NO_CHARGES


@<TRIPOS>ATOM
   1 C1             0.2879     0.0334     0.7282 C.ar    
   2 C2             0.0070    -1.3008     0.3963 C.ar    
   3 C3            -1.3109    -1.6672     0.2135 C.ar    
   4 C4            -2.3105    -0.7100     0.3629 C.ar    
   5 N5            -3.6423    -1.0742     0.1800 N.am    
   6 C6             1.6390     0.4638     0.9279 C.1     
   7 C7             2.7467     0.8166     1.0917 C.1     
   8 C8             4.0978     1.2470     1.2914 C.ar    
   9 C9             4.3694     2.5774     1.6217 C.ar    
  10 C10            5.6732     2.9846     1.8125 C.ar    
  11 N11           -2.0135     0.5418     0.6768 N.ar    
  12 C12           -0.7696     0.9363     0.8551 C.ar    
  13 C13            5.1508     0.3373     1.1624 C.ar    
  14 C14            6.7112     2.0795     1.6771 C.ar    
  15 N15           -4.6919    -0.2399     0.4273 N.3     
  16 C16           -5.8754    -0.7758    -0.2845 C.3     
  17 C17           -5.5423    -2.2853    -0.3649 C.3     
  18 C18           -4.0276    -2.2846    -0.2648 C.2     
  19 C19            6.4495     0.7591     1.3562 C.ar    
  20 O20           -3.2945    -3.2132    -0.5314 O.2     
  21 C21           -7.1529    -0.5398     0.5237 C.3     
  22 C22           -4.9495    -0.1312     1.8694 C.3     
  23 C23           -3.7600     0.5491     2.5501 C.3     
  24 C24           -7.4385     0.9614     0.5995 C.3     
  25 C25           -8.3255    -1.2483    -0.1575 C.3     
  26 H26            0.8025    -2.0230     0.2863 H       
  27 H27           -1.5639    -2.6854    -0.0431 H       
  28 H28            3.5603     3.2850     1.7270 H       
  29 H29            5.8846     4.0125     2.0678 H       
  30 H30           -0.5663     1.9658     1.1105 H       
  31 H31            4.9480    -0.6935     0.9121 H       
  32 H32            7.7302     2.4043     1.8270 H       
  33 H33           -5.9605    -0.3419    -1.2807 H       
  34 H34           -5.9897    -2.8263     0.4689 H       
  35 H35           -5.8651    -2.7036    -1.3182 H       
  36 H36            7.2643     0.0572     1.2569 H       
  37 H37           -7.0243    -0.9365     1.5308 H       
  38 H38           -5.8497     0.4610     2.0341 H       
  39 H39           -5.0878    -1.1272     2.2899 H       
  40 H40           -2.8909    -0.1072     2.5040 H       
  41 H41           -3.5357     1.4854     2.0392 H       
  42 H42           -4.0059     0.7536     3.5921 H       
  43 H43           -6.5528     1.4818     0.9638 H       
  44 H44           -7.6959     1.3328    -0.3925 H       
  45 H45           -8.2704     1.1390     1.2811 H       
  46 H46           -8.1644    -2.3260    -0.1301 H       
  47 H47           -9.2503    -1.0058     0.3660 H       
  48 H48           -8.3972    -0.9179    -1.1938 H       
@<TRIPOS>BOND
   1    1    2 ar
   2    1    6 1
   3    1   12 ar
   4    2    3 ar
   5    2   26 1
   6    3    4 ar
   7    3   27 1
   8    4   11 ar
   9    4    5 1
  10    5   15 1
  11    5   18 am
  12    6    7 3
  13    7    8 1
  14    8    9 ar
  15    8   13 ar
  16    9   10 ar
  17    9   28 1
  18   10   14 ar
  19   10   29 1
  20   11   12 ar
  21   12   30 1
  22   13   19 ar
  23   13   31 1
  24   14   19 ar
  25   14   32 1
  26   15   16 1
  27   15   22 1
  28   16   17 1
  29   16   21 1
  30   16   33 1
  31   17   18 1
  32   17   34 1
  33   17   35 1
  34   18   20 2
  35   19   36 1
  36   21   24 1
  37   21   25 1
  38   21   37 1
  39   22   23 1
  40   22   38 1
  41   22   39 1
  42   23   40 1
  43   23   41 1
  44   23   42 1
  45   24   43 1
  46   24   44 1
  47   24   45 1
  48   25   46 1
  49   25   47 1
  50   25   48 1

#	End of record

