#	Name: ASD00841300
#	Creating user name:	WinNT
#	Creation time:	15. 06. 2019 18:41

#	Modifying user name:	WinNT
#	Modification time:	15. 06. 2019 18:41

#	Program:	/corina/corina34_cracker 3.40 0067  02.08.2006

@<TRIPOS>MOLECULE
ASD00841300
  90   95    0    0    0
SMALL
NO_CHARGES


@<TRIPOS>ATOM
   1 F1            -0.0973    -3.1246     4.7250 F       
   2 N2            -0.0159     1.3183     0.0093 N.ar    
   3 C3             0.0021    -0.0041     0.0020 C.ar    
   4 C4             1.2069    -0.6955    -0.0132 C.ar    
   5 C5             2.3925     0.0180    -0.0207 C.ar    
   6 C6             2.3308     1.4049    -0.0127 C.ar    
   7 C7             1.0980     2.0259     0.0025 C.ar    
   8 C8             1.2224    -2.2024    -0.0209 C.3     
   9 C9             0.4764    -2.7341    -1.2259 C.2     
  10 O10            2.5880    -2.6957    -0.0100 O.3     
  11 C11            3.3812    -2.3219    -1.0317 C.2     
  12 N12            4.6598    -2.7450    -1.0818 N.am    
  13 O13            2.9442    -1.6031    -1.9086 O.2     
  14 C14            5.5375    -2.3455    -2.1904 C.3     
  15 C15            6.1419    -3.6050    -2.8192 C.3     
  16 C16            6.8366    -4.4295    -1.7331 C.3     
  17 C17            5.8108    -4.8591    -0.6818 C.3     
  18 C18            5.2043    -3.6094    -0.0259 C.3     
  19 N19            7.4459    -5.6214    -2.3382 N.3     
  20 C20            8.2232    -6.3769    -1.3459 C.3     
  21 C21            8.7740    -7.6491    -1.9943 C.3     
  22 N22            9.6092    -7.2858    -3.1477 N.3     
  23 C23            8.8318    -6.5304    -4.1400 C.3     
  24 C24            8.2810    -5.2582    -3.4915 C.3     
  25 H25           10.4236    -6.7670    -2.8553 H       
  26 O26            0.7566    -2.5392    -2.3898 O.2     
  27 N27           -0.5539    -3.4627    -0.7649 N.am    
  28 C28            0.4505    -2.7460     1.1600 C.ar    
  29 C29           -0.5988    -3.4907     0.6311 C.ar    
  30 C30            0.6193    -2.6223     2.5215 C.ar    
  31 C31           -0.2615    -3.2439     3.3894 C.ar    
  32 C32           -1.3224    -3.9967     2.8756 C.ar    
  33 C33           -1.4874    -4.1183     1.4962 C.ar    
  34 C34           -1.0160    -5.8566    -2.0415 C.ar    
  35 C35            0.1627    -6.0201    -2.7551 C.ar    
  36 C36           -1.6940    -6.9615    -1.5626 C.ar    
  37 C37           -1.2001    -8.2311    -1.7925 C.ar    
  38 C38           -0.0215    -8.3999    -2.5058 C.ar    
  39 C39            0.6602    -7.2933    -2.9876 C.ar    
  40 O40            0.4636    -9.6490    -2.7321 O.3     
  41 O41            0.8288    -4.9332    -3.2262 O.3     
  42 C42           -0.2910   -10.7430    -2.2068 C.3     
  43 C43            2.0353    -5.1761    -3.9523 C.3     
  44 C44            2.6388    -3.8431    -4.3992 C.3     
  45 S45           -1.6450    -4.2387    -1.7395 S.o2    
  46 O46           -2.8259    -4.4051    -0.9668 O.2     
  47 O47           -1.6221    -3.5598    -2.9876 O.2     
  48 O48           -1.1673    -0.6919     0.0099 O.3     
  49 C49           -3.5777    -0.8652     0.0330 C.3     
  50 C50           -2.3720     0.0766     0.0260 C.3     
  51 C51           -2.2386    -4.6434     3.7661 C.1     
  52 N52           -2.9655    -5.1564     4.4724 N.1     
  53 H53            3.3442    -0.4925    -0.0322 H       
  54 H54            3.2375     1.9916    -0.0178 H       
  55 H55            1.0444     3.1046     0.0084 H       
  56 H56            4.9579    -1.8054    -2.9390 H       
  57 H57            6.3358    -1.7067    -1.8124 H       
  58 H58            5.3505    -4.1989    -3.2765 H       
  59 H59            6.8686    -3.3191    -3.5797 H       
  60 H60            7.6114    -3.8267    -1.2594 H       
  61 H61            5.0225    -5.4412    -1.1593 H       
  62 H62            6.3018    -5.4659     0.0789 H       
  63 H63            5.9769    -3.0761     0.5281 H       
  64 H64            4.4035    -3.9046     0.6521 H       
  65 H65            9.0503    -5.7635    -0.9883 H       
  66 H66            7.5801    -6.6451    -0.5077 H       
  67 H67            9.3751    -8.1965    -1.2682 H       
  68 H68            7.9463    -8.2751    -2.3275 H       
  69 H69            9.4749    -6.2622    -4.9782 H       
  70 H70            8.0047    -7.1437    -4.4975 H       
  71 H71            7.6800    -4.7108    -4.2176 H       
  72 H72            9.1087    -4.6321    -3.1583 H       
  73 H73            1.4404    -2.0397     2.9122 H       
  74 H74           -2.3067    -4.6997     1.0998 H       
  75 H75           -2.6113    -6.8323    -1.0074 H       
  76 H76           -1.7314    -9.0930    -1.4166 H       
  77 H77            1.5773    -7.4225    -3.5432 H       
  78 H78            0.2054   -11.6804    -2.4577 H       
  79 H79           -0.3621   -10.6482    -1.1233 H       
  80 H80           -1.2917   -10.7347    -2.6388 H       
  81 H81            2.7453    -5.7001    -3.3124 H       
  82 H82            1.8157    -5.7872    -4.8278 H       
  83 H83            1.9289    -3.3192    -5.0391 H       
  84 H84            2.8584    -3.2320    -3.5237 H       
  85 H85            3.5591    -4.0284    -4.9531 H       
  86 H86           -4.4966    -0.2790     0.0452 H       
  87 H87           -3.5566    -1.4891    -0.8606 H       
  88 H88           -3.5390    -1.4986     0.9192 H       
  89 H89           -2.3931     0.7004     0.9196 H       
  90 H90           -2.4108     0.7099    -0.8602 H       
@<TRIPOS>BOND
   1    1   31 1
   2    2    3 ar
   3    2    7 ar
   4    3    4 ar
   5    3   48 1
   6    4    5 ar
   7    4    8 1
   8    5    6 ar
   9    5   53 1
  10    6    7 ar
  11    6   54 1
  12    7   55 1
  13    8    9 1
  14    8   10 1
  15    8   28 1
  16    9   26 2
  17    9   27 am
  18   10   11 1
  19   11   12 am
  20   11   13 2
  21   12   14 1
  22   12   18 1
  23   14   15 1
  24   14   56 1
  25   14   57 1
  26   15   16 1
  27   15   58 1
  28   15   59 1
  29   16   17 1
  30   16   19 1
  31   16   60 1
  32   17   18 1
  33   17   61 1
  34   17   62 1
  35   18   63 1
  36   18   64 1
  37   19   20 1
  38   19   24 1
  39   20   21 1
  40   20   65 1
  41   20   66 1
  42   21   22 1
  43   21   67 1
  44   21   68 1
  45   22   23 1
  46   22   25 1
  47   23   24 1
  48   23   69 1
  49   23   70 1
  50   24   71 1
  51   24   72 1
  52   27   45 am
  53   27   29 1
  54   28   29 ar
  55   28   30 ar
  56   29   33 ar
  57   30   31 ar
  58   30   73 1
  59   31   32 ar
  60   32   33 ar
  61   32   51 1
  62   33   74 1
  63   34   35 ar
  64   34   36 ar
  65   34   45 1
  66   35   41 1
  67   35   39 ar
  68   36   37 ar
  69   36   75 1
  70   37   38 ar
  71   37   76 1
  72   38   39 ar
  73   38   40 1
  74   39   77 1
  75   40   42 1
  76   41   43 1
  77   42   78 1
  78   42   79 1
  79   42   80 1
  80   43   44 1
  81   43   81 1
  82   43   82 1
  83   44   83 1
  84   44   84 1
  85   44   85 1
  86   45   46 2
  87   45   47 2
  88   48   50 1
  89   49   50 1
  90   49   86 1
  91   49   87 1
  92   49   88 1
  93   50   89 1
  94   50   90 1
  95   51   52 3

#	End of record

