#	Name: ASD01918209
#	Creating user name:	WinNT
#	Creation time:	15. 06. 2019 20:11

#	Modifying user name:	WinNT
#	Modification time:	15. 06. 2019 20:11

#	Program:	/corina/corina34_cracker 3.40 0067  02.08.2006

@<TRIPOS>MOLECULE
ASD01918209
  40   43    0    0    0
SMALL
NO_CHARGES


@<TRIPOS>ATOM
   1 C1             0.0715     1.3513    -0.0309 C.ar    
   2 C2             0.1823    -0.0412    -0.2734 C.ar    
   3 C3             1.4478    -0.6615    -0.1343 C.ar    
   4 N4             2.5129     0.0653     0.2210 N.ar    
   5 C5             2.4249     1.3541     0.4489 C.ar    
   6 C6             1.2216     2.0393     0.3339 C.ar    
   7 C7            -1.2266     2.0503    -0.1679 C.ar    
   8 C8            -2.2276     1.8607     0.7851 C.ar    
   9 C9            -3.4350     2.5140     0.6530 C.ar    
  10 C10           -3.6547     3.3578    -0.4243 C.ar    
  11 C11           -2.6636     3.5491    -1.3740 C.ar    
  12 C12           -1.4506     2.9051    -1.2475 C.ar    
  13 C13           -0.9305    -0.8071    -0.6449 C.ar    
  14 C14           -0.7852    -2.1430    -0.8692 C.ar    
  15 C15            0.4591    -2.7586    -0.7336 C.ar    
  16 C16            1.5617    -2.0412    -0.3739 C.ar    
  17 S17            1.1550     3.7715     0.6496 S.o2    
  18 C18            0.1739     4.0009     2.0951 C.ar    
  19 O19            2.4755     4.1678     0.9938 O.2     
  20 O20            0.4260     4.3476    -0.4256 O.2     
  21 C21           -1.1633     4.3317     1.9769 C.ar    
  22 C22            0.7405     3.8443     3.3461 C.ar    
  23 C23           -0.0278     4.0234     4.4813 C.ar    
  24 C24           -1.3653     4.3598     4.3654 C.ar    
  25 C25           -1.9340     4.5119     3.1108 C.ar    
  26 F26           -2.1170     4.5346     5.4742 F       
  27 F27           -4.8391     3.9955    -0.5494 F       
  28 F28            0.5738    -4.0852    -0.9625 F       
  29 Cl29          -3.6128     4.9285     2.9628 Cl      
  30 H30            3.3132     1.8982     0.7338 H       
  31 H31           -2.0575     1.2031     1.6248 H       
  32 H32           -4.2107     2.3676     1.3901 H       
  33 H33           -2.8397     4.2073    -2.2119 H       
  34 H34           -0.6771     3.0586    -1.9854 H       
  35 H35           -1.8987    -0.3409    -0.7524 H       
  36 H36           -1.6438    -2.7325    -1.1552 H       
  37 H37            2.5185    -2.5318    -0.2729 H       
  38 H38           -1.6059     4.4498     0.9989 H       
  39 H39            1.7841     3.5815     3.4367 H       
  40 H40            0.4156     3.9005     5.4584 H       
@<TRIPOS>BOND
   1    1    2 ar
   2    1    6 ar
   3    1    7 1
   4    2    3 ar
   5    2   13 ar
   6    3    4 ar
   7    3   16 ar
   8    4    5 ar
   9    5    6 ar
  10    5   30 1
  11    6   17 1
  12    7    8 ar
  13    7   12 ar
  14    8    9 ar
  15    8   31 1
  16    9   10 ar
  17    9   32 1
  18   10   11 ar
  19   10   27 1
  20   11   12 ar
  21   11   33 1
  22   12   34 1
  23   13   14 ar
  24   13   35 1
  25   14   15 ar
  26   14   36 1
  27   15   16 ar
  28   15   28 1
  29   16   37 1
  30   17   18 1
  31   17   19 2
  32   17   20 2
  33   18   22 ar
  34   18   21 ar
  35   21   25 ar
  36   21   38 1
  37   22   23 ar
  38   22   39 1
  39   23   24 ar
  40   23   40 1
  41   24   25 ar
  42   24   26 1
  43   25   29 1

#	End of record

