#	Name: ASD01900470
#	Creating user name:	WinNT
#	Creation time:	15. 06. 2019 19:52

#	Modifying user name:	WinNT
#	Modification time:	15. 06. 2019 19:52

#	Program:	/corina/corina34_cracker 3.40 0067  02.08.2006

@<TRIPOS>MOLECULE
ASD01900470
  36   39    0    0    0
SMALL
NO_CHARGES


@<TRIPOS>ATOM
   1 C1             0.3995     3.9871     0.6060 C.ar    
   2 C2             0.8402     5.0255     1.4485 C.ar    
   3 C3             2.2070     5.2838     1.5465 C.ar    
   4 C4             3.0740     4.5036     0.8072 C.ar    
   5 C5             2.5692     3.4956    -0.0039 C.ar    
   6 N6             1.2785     3.2652    -0.0850 N.ar    
   7 N7            -1.4103     4.9102     1.5503 N.2     
   8 N8            -0.2752     5.5802     2.0184 N.pl3   
   9 C9            -1.0613     3.9697     0.7131 C.2     
  10 N10           -1.9266     3.0974     0.0457 N.pl3   
  11 C11           -3.3113     3.2653     0.1557 C.ar    
  12 C12           -3.8428     4.5301     0.3735 C.ar    
  13 C13           -5.2103     4.6947     0.4816 C.ar    
  14 C14           -6.0525     3.5963     0.3730 C.ar    
  15 C15           -5.5220     2.3338     0.1561 C.ar    
  16 C16           -4.1553     2.1685     0.0417 C.ar    
  17 O17           -7.3987     3.7587     0.4799 O.3     
  18 C18           -8.2055     2.5855     0.3582 C.3     
  19 S19          -10.5167     2.9973     1.9807 S.3     
  20 C20           -9.6586     2.9579     0.5024 C.2     
  21 N21          -10.4352     3.2932    -0.4719 N.2     
  22 C22          -11.6833     3.5900    -0.1705 C.2     
  23 C23          -11.9757     3.5002     1.1304 C.2     
  24 Cl24          -5.8755     6.2750     0.7537 Cl      
  25 H25            2.5776     6.0733     2.1835 H       
  26 H26            4.1388     4.6766     0.8591 H       
  27 H27            3.2519     2.8887    -0.5801 H       
  28 H28           -0.2775     6.3193     2.6465 H       
  29 H29           -1.5669     2.3758    -0.4937 H       
  30 H30           -3.1874     5.3842     0.4586 H       
  31 H31           -6.1779     1.4799     0.0721 H       
  32 H32           -3.7429     1.1855    -0.1321 H       
  33 H33           -8.0419     2.1319    -0.6194 H       
  34 H34           -7.9333     1.8749     1.1386 H       
  35 H35          -12.4102     3.8824    -0.9139 H       
  36 H36          -12.9366     3.7004     1.5809 H       
@<TRIPOS>BOND
   1    1    2 ar
   2    1    6 ar
   3    1    9 1
   4    2    3 ar
   5    2    8 1
   6    3    4 ar
   7    3   25 1
   8    4    5 ar
   9    4   26 1
  10    5    6 ar
  11    5   27 1
  12    7    8 1
  13    7    9 2
  14    8   28 1
  15    9   10 1
  16   10   11 1
  17   10   29 1
  18   11   12 ar
  19   11   16 ar
  20   12   13 ar
  21   12   30 1
  22   13   14 ar
  23   13   24 1
  24   14   15 ar
  25   14   17 1
  26   15   16 ar
  27   15   31 1
  28   16   32 1
  29   17   18 1
  30   18   20 1
  31   18   33 1
  32   18   34 1
  33   19   20 1
  34   19   23 1
  35   20   21 2
  36   21   22 1
  37   22   23 2
  38   22   35 1
  39   23   36 1

#	End of record

