#	Name: ASD01140590
#	Creating user name:	WinNT
#	Creation time:	15. 06. 2019 19:01

#	Modifying user name:	WinNT
#	Modification time:	15. 06. 2019 19:01

#	Program:	/corina/corina34_cracker 3.40 0067  02.08.2006

@<TRIPOS>MOLECULE
ASD01140590
  33   35    0    0    0
SMALL
NO_CHARGES


@<TRIPOS>ATOM
   1 O1            -0.0110     0.9628     0.0073 O.3     
   2 O2             1.5374     0.1043     1.9438 O.3     
   3 O3             1.5265     3.8386     4.1669 O.3     
   4 N4             2.3046     3.6938    -0.7321 N.pl3   
   5 N5             4.3466     4.2127    -1.3026 N.2     
   6 N6             2.7094     6.1014    -4.0044 N.ar    
   7 N7             5.0340     5.9926    -3.6920 N.pl3   
   8 C8             1.1855     3.1048     0.0074 C.3     
   9 C9             1.2864     1.5618    -0.0018 C.3     
  10 C10            2.0299     1.2959     1.3277 C.3     
  11 C11            1.7213     2.4994     2.1877 C.2     
  12 C12            1.2608     3.4859     1.4676 C.2     
  13 C13            2.2134     4.4987    -1.8422 C.ar    
  14 C14            1.9188     2.5534     3.6807 C.3     
  15 C15            3.6284     3.5498    -0.4432 C.2     
  16 C16            3.5334     4.8247    -2.1980 C.ar    
  17 C17            1.1689     5.0069    -2.6119 C.ar    
  18 C18            3.7426     5.6496    -3.3140 C.ar    
  19 C19            1.4601     5.8026    -3.6836 C.ar    
  20 H20            0.2365     3.4259    -0.4221 H       
  21 H21            1.8700     1.2129    -0.8538 H       
  22 H22            3.1030     1.2167     1.1534 H       
  23 H23            0.9719     4.4483     1.8636 H       
  24 H24            2.9695     2.3816     3.9147 H       
  25 H25            1.3103     1.7839     4.1558 H       
  26 H26            4.0236     2.9712     0.3786 H       
  27 H27            0.0021    -0.0041     0.0020 H       
  28 H28            1.9681    -0.1120     2.7821 H       
  29 H29            0.1435     4.7747    -2.3650 H       
  30 H30            0.6527     6.1985    -4.2817 H       
  31 H31            1.6271     3.9450     5.1227 H       
  32 H32            5.1783     6.5638    -4.4626 H       
  33 H33            5.7918     5.6610    -3.1853 H       
@<TRIPOS>BOND
   1    1   27 1
   2    1    9 1
   3    2   28 1
   4    2   10 1
   5    3   14 1
   6    3   31 1
   7    4   13 1
   8    4   15 1
   9    4    8 1
  10    5   15 2
  11    5   16 1
  12    6   18 ar
  13    6   19 ar
  14    7   18 1
  15    7   32 1
  16    7   33 1
  17    8    9 1
  18    8   12 1
  19    8   20 1
  20    9   10 1
  21    9   21 1
  22   10   11 1
  23   10   22 1
  24   11   12 2
  25   11   14 1
  26   12   23 1
  27   13   16 ar
  28   13   17 ar
  29   14   24 1
  30   14   25 1
  31   15   26 1
  32   16   18 ar
  33   17   19 ar
  34   17   29 1
  35   19   30 1

#	End of record

