#	Name: ASD03730495
#	Creating user name:	WinNT
#	Creation time:	15. 06. 2019 20:44

#	Modifying user name:	WinNT
#	Modification time:	15. 06. 2019 20:44

#	Program:	/corina/corina34_cracker 3.40 0067  02.08.2006

@<TRIPOS>MOLECULE
ASD03730495
  53   58    0    0    0
SMALL
NO_CHARGES


@<TRIPOS>ATOM
   1 C1            -0.0186     1.5023     0.0155 C.2     
   2 C2             0.0014    -0.0045     0.0124 C.3     
   3 O3             1.0237     2.1227     0.0094 O.2     
   4 N4            -1.1946     2.1607     0.0195 N.am    
   5 O5             6.2409     2.8840     2.1138 O.3     
   6 C6             7.6608     2.8282     2.3459 C.3     
   7 O7             7.8716     1.4999     2.8599 O.3     
   8 C8             6.8616     0.7419     2.3402 C.ar    
   9 C9             5.8587     1.5936     1.8825 C.ar    
  10 C10            6.7148    -0.6281     2.2178 C.ar    
  11 C11            5.5683    -1.1656     1.6405 C.ar    
  12 C12            4.5698    -0.3051     1.1945 C.ar    
  13 C13            4.7158     1.0616     1.3096 C.ar    
  14 O14            5.2362    -2.4685     1.4115 O.3     
  15 C15            3.4646    -1.1734     0.6553 C.3     
  16 C16            3.8150    -2.5659     1.1971 C.3     
  17 N17            1.3889    -0.4745     0.0017 N.am    
  18 C18            2.1093    -0.7186     1.1146 C.2     
  19 C19            3.4037    -1.1550    -0.8433 C.ar    
  20 C20            4.3076    -1.4610    -1.8360 C.ar    
  21 C21            3.9435    -1.3416    -3.1654 C.ar    
  22 C22            2.6701    -0.9137    -3.4946 C.ar    
  23 C23            1.7615    -0.6051    -2.5038 C.ar    
  24 C24            2.1192    -0.7227    -1.1630 C.ar    
  25 O25            1.7358    -0.5953     2.2620 O.2     
  26 C26           -1.2153     3.5571     0.1329 C.ar    
  27 C27           -2.1836     4.2939    -0.5360 C.ar    
  28 C28           -2.2037     5.6700    -0.4234 C.ar    
  29 C29           -1.2567     6.3163     0.3575 C.ar    
  30 C30           -0.2887     5.5808     1.0257 C.ar    
  31 C31           -0.2712     4.2041     0.9189 C.ar    
  32 O32           -1.2768     7.6714     0.4676 O.3     
  33 C33           -0.2720     8.2707     1.2881 C.3     
  34 H34           -0.5013    -0.3764     0.9053 H       
  35 H35           -0.5139    -0.3729    -0.8747 H       
  36 H36           -2.0266     1.6678    -0.0562 H       
  37 H37            8.2071     2.9691     1.4133 H       
  38 H38            7.9582     3.5753     3.0817 H       
  39 H39            7.4952    -1.2850     2.5726 H       
  40 H40            3.9366     1.7185     0.9522 H       
  41 H41            3.5864    -3.3365     0.4609 H       
  42 H42            3.2943    -2.7586     2.1351 H       
  43 H43            5.3014    -1.7947    -1.5767 H       
  44 H44            4.6518    -1.5823    -3.9443 H       
  45 H45            2.3860    -0.8204    -4.5324 H       
  46 H46            0.7693    -0.2711    -2.7688 H       
  47 H47           -2.9205     3.7909    -1.1445 H       
  48 H48           -2.9568     6.2433    -0.9436 H       
  49 H49            0.4487     6.0846     1.6328 H       
  50 H50            0.4797     3.6313     1.4427 H       
  51 H51            0.7138     8.0235     0.8941 H       
  52 H52           -0.4018     9.3529     1.2894 H       
  53 H53           -0.3614     7.8927     2.3065 H       
@<TRIPOS>BOND
   1    1    2 1
   2    1    3 2
   3    1    4 am
   4    2   17 1
   5    2   34 1
   6    2   35 1
   7    4   26 1
   8    4   36 1
   9    5    6 1
  10    5    9 1
  11    6    7 1
  12    6   37 1
  13    6   38 1
  14    7    8 1
  15    8    9 ar
  16    8   10 ar
  17    9   13 ar
  18   10   11 ar
  19   10   39 1
  20   11   12 ar
  21   11   14 1
  22   12   13 ar
  23   12   15 1
  24   13   40 1
  25   14   16 1
  26   15   16 1
  27   15   18 1
  28   15   19 1
  29   16   41 1
  30   16   42 1
  31   17   18 am
  32   17   24 1
  33   18   25 2
  34   19   20 ar
  35   19   24 ar
  36   20   21 ar
  37   20   43 1
  38   21   22 ar
  39   21   44 1
  40   22   23 ar
  41   22   45 1
  42   23   24 ar
  43   23   46 1
  44   26   27 ar
  45   26   31 ar
  46   27   28 ar
  47   27   47 1
  48   28   29 ar
  49   28   48 1
  50   29   30 ar
  51   29   32 1
  52   30   31 ar
  53   30   49 1
  54   31   50 1
  55   32   33 1
  56   33   51 1
  57   33   52 1
  58   33   53 1

#	End of record

