#	Name: ASD01917129
#	Creating user name:	WinNT
#	Creation time:	15. 06. 2019 20:08

#	Modifying user name:	WinNT
#	Modification time:	15. 06. 2019 20:08

#	Program:	/corina/corina34_cracker 3.40 0067  02.08.2006

@<TRIPOS>MOLECULE
ASD01917129
  43   45    0    0    0
SMALL
NO_CHARGES


@<TRIPOS>ATOM
   1 C1            -0.0184     1.5028     0.0103 C.3     
   2 C2             0.0021    -0.0041     0.0020 C.2     
   3 N3             0.5337    -0.7573    -0.9243 N.2     
   4 C4             0.3686    -2.0488    -0.6085 C.2     
   5 N5            -0.2770    -2.1240     0.5348 N.2     
   6 N6            -0.5186    -0.8042     0.9496 N.pl3   
   7 C7            -1.2104    -0.3819     2.1699 C.3     
   8 C8            -0.2108    -0.2309     3.2875 C.2     
   9 Cl9           -0.7407     0.2625     4.8653 Cl      
  10 O10            0.9590    -0.4532     3.0854 O.2     
  11 C11            0.8366    -3.2031    -1.4149 C.ar    
  12 C12            1.4170     2.0324    -0.0006 C.3     
  13 C13            0.6010    -4.5041    -0.9741 C.ar    
  14 C14            1.5076    -2.9884    -2.6174 C.ar    
  15 C15            1.9414    -4.0632    -3.3648 C.ar    
  16 C16            1.7104    -5.3579    -2.9204 C.ar    
  17 C17            1.0372    -5.5749    -1.7257 C.ar    
  18 C18            1.3963     3.5622     0.0079 C.3     
  19 C19            0.6563     4.0690    -1.2317 C.3     
  20 C20           -0.7791     3.5394    -1.2208 C.3     
  21 C21           -0.7584     2.0096    -1.2292 C.3     
  22 O22            2.1389    -6.4149    -3.6588 O.3     
  23 C23            1.8677    -7.7195    -3.1426 C.3     
  24 H24           -0.5286     1.8543     0.9071 H       
  25 H25           -1.7063     0.5728     1.9946 H       
  26 H26           -1.9524    -1.1315     2.4449 H       
  27 H27            1.9442     1.6713     0.8825 H       
  28 H28            1.9272     1.6808    -0.8974 H       
  29 H29            0.0776    -4.6735    -0.0447 H       
  30 H30            1.6873    -1.9814    -2.9638 H       
  31 H31            2.4612    -3.8974    -4.2969 H       
  32 H32            0.8591    -6.5833    -1.3823 H       
  33 H33            0.8861     3.9137     0.9047 H       
  34 H34            2.4189     3.9395     0.0001 H       
  35 H35            0.6415     5.1589    -1.2257 H       
  36 H36            1.1665     3.7175    -2.1285 H       
  37 H37           -1.2893     3.8910    -0.3240 H       
  38 H38           -1.3063     3.9005    -2.1039 H       
  39 H39           -0.2482     1.6581    -2.1260 H       
  40 H40           -1.7809     1.6323    -1.2215 H       
  41 H41            2.2620    -8.4704    -3.8273 H       
  42 H42            2.3435    -7.8308    -2.1682 H       
  43 H43            0.7909    -7.8524    -3.0384 H       
@<TRIPOS>BOND
   1    1    2 1
   2    1   12 1
   3    1   21 1
   4    1   24 1
   5    2    3 2
   6    2    6 1
   7    3    4 1
   8    4    5 2
   9    4   11 1
  10    5    6 1
  11    6    7 1
  12    7    8 1
  13    7   25 1
  14    7   26 1
  15    8    9 1
  16    8   10 2
  17   11   13 ar
  18   11   14 ar
  19   12   18 1
  20   12   27 1
  21   12   28 1
  22   13   17 ar
  23   13   29 1
  24   14   15 ar
  25   14   30 1
  26   15   16 ar
  27   15   31 1
  28   16   17 ar
  29   16   22 1
  30   17   32 1
  31   18   19 1
  32   18   33 1
  33   18   34 1
  34   19   20 1
  35   19   35 1
  36   19   36 1
  37   20   21 1
  38   20   37 1
  39   20   38 1
  40   21   39 1
  41   21   40 1
  42   22   23 1
  43   23   41 1
  44   23   42 1
  45   23   43 1

#	End of record

