#	Name: ASD01910239
#	Creating user name:	WinNT
#	Creation time:	15. 06. 2019 19:55

#	Modifying user name:	WinNT
#	Modification time:	15. 06. 2019 19:55

#	Program:	/corina/corina34_cracker 3.40 0067  02.08.2006

@<TRIPOS>MOLECULE
ASD01910239
  47   50    0    0    0
SMALL
NO_CHARGES


@<TRIPOS>ATOM
   1 C1             0.6279     0.5001     0.4185 C.2     
   2 C2             1.8052     1.4407     0.4040 C.3     
   3 C3             2.1251     1.8365    -1.0393 C.3     
   4 C4             3.3409     2.7657    -1.0578 C.3     
   5 C5             3.0183     4.0380    -0.2678 C.3     
   6 N6             2.5699     3.6576     1.0786 N.am    
   7 C7             1.4652     2.6980     1.2105 C.3     
   8 C8             3.1608     4.1790     2.1720 C.2     
   9 C9             4.3241     5.0776     2.0253 C.ar    
  10 O10            2.7364     3.9099     3.2790 O.2     
  11 N11            0.6166    -0.7248     0.8821 N.2     
  12 C12           -0.6433    -1.1754     0.6866 C.2     
  13 N13           -1.3163    -0.2070     0.1214 N.2     
  14 O14           -0.6025     0.7612    -0.0339 O.3     
  15 C15           -1.1644    -2.5176     1.0455 C.ar    
  16 C16           -2.4934    -2.8444     0.7828 C.ar    
  17 C17           -2.9736    -4.0936     1.1177 C.ar    
  18 C18           -2.1365    -5.0228     1.7144 C.ar    
  19 C19           -0.8144    -4.7020     1.9773 C.ar    
  20 C20           -0.3246    -3.4569     1.6409 C.ar    
  21 F21           -2.6110    -6.2448     2.0411 F       
  22 C22            5.4889     4.8412     2.7581 C.ar    
  23 C23            6.5717     5.6826     2.6170 C.ar    
  24 C24            6.5055     6.7622     1.7498 C.ar    
  25 C25            5.3510     7.0019     1.0199 C.ar    
  26 C26            4.2648     6.1634     1.1487 C.ar    
  27 C27            7.8296     5.4287     3.4072 C.3     
  28 F28            7.5694     7.5840     1.6156 F       
  29 H29            2.6707     0.9472     0.8462 H       
  30 H30            2.3434     0.9412    -1.6215 H       
  31 H31            1.2679     2.3514    -1.4732 H       
  32 H32            4.1921     2.2602    -0.6016 H       
  33 H33            3.5824     3.0284    -2.0878 H       
  34 H34            3.9114     4.6585    -0.1939 H       
  35 H35            2.2272     4.5914    -0.7737 H       
  36 H36            0.5474     3.1421     0.8253 H       
  37 H37            1.3335     2.4344     2.2600 H       
  38 H38           -3.1466    -2.1207     0.3181 H       
  39 H39           -4.0035    -4.3476     0.9148 H       
  40 H40           -0.1654    -5.4291     2.4425 H       
  41 H41            0.7060    -3.2077     1.8461 H       
  42 H42            5.5413     4.0009     3.4345 H       
  43 H43            5.3044     7.8448     0.3463 H       
  44 H44            3.3662     6.3508     0.5796 H       
  45 H45            8.4919     4.7777     2.8366 H       
  46 H46            8.3321     6.3756     3.6044 H       
  47 H47            7.5744     4.9492     4.3522 H       
@<TRIPOS>BOND
   1    1   11 2
   2    1    2 1
   3    1   14 1
   4    2    3 1
   5    2    7 1
   6    2   29 1
   7    3    4 1
   8    3   30 1
   9    3   31 1
  10    4    5 1
  11    4   32 1
  12    4   33 1
  13    5    6 1
  14    5   34 1
  15    5   35 1
  16    6    7 1
  17    6    8 am
  18    7   36 1
  19    7   37 1
  20    8    9 1
  21    8   10 2
  22    9   22 ar
  23    9   26 ar
  24   11   12 1
  25   12   13 2
  26   12   15 1
  27   13   14 1
  28   15   16 ar
  29   15   20 ar
  30   16   17 ar
  31   16   38 1
  32   17   18 ar
  33   17   39 1
  34   18   19 ar
  35   18   21 1
  36   19   20 ar
  37   19   40 1
  38   20   41 1
  39   22   23 ar
  40   22   42 1
  41   23   24 ar
  42   23   27 1
  43   24   25 ar
  44   24   28 1
  45   25   26 ar
  46   25   43 1
  47   26   44 1
  48   27   45 1
  49   27   46 1
  50   27   47 1

#	End of record

