#	Name: ASD01910221
#	Creating user name:	WinNT
#	Creation time:	15. 06. 2019 19:55

#	Modifying user name:	WinNT
#	Modification time:	15. 06. 2019 19:55

#	Program:	/corina/corina34_cracker 3.40 0067  02.08.2006

@<TRIPOS>MOLECULE
ASD01910221
  36   38    0    0    0
SMALL
NO_CHARGES


@<TRIPOS>ATOM
   1 C1            -0.0173     1.4278     0.0099 C.2     
   2 C2             0.0021    -0.0041     0.0020 C.1     
   3 C3             0.0180    -1.1779    -0.0044 C.1     
   4 C4             0.0374    -2.6098    -0.0123 C.ar    
   5 C5            -1.1548    -3.3467    -0.0049 C.ar    
   6 C6             1.2502    -3.3145    -0.0336 C.ar    
   7 C7             1.2223    -4.6918    -0.0410 C.ar    
   8 N8             0.0764    -5.3478    -0.0288 N.ar    
   9 C9            -1.0883    -4.7252    -0.0134 C.ar    
  10 Cl10          -2.5553    -5.6533     0.0020 Cl      
  11 N11            1.0667     2.2434     0.0039 N.2     
  12 C12            0.6681     3.4838     0.0144 C.2     
  13 N13           -0.6912     3.5125     0.0275 N.pl3   
  14 C14           -1.1294     2.2181     0.0188 C.2     
  15 C15           -2.5631     1.7536     0.0273 C.3     
  16 C16            1.5686     4.6921     0.0131 C.3     
  17 C17           -1.4965     4.6607     0.0418 C.ar    
  18 C18           -1.4906     5.5273    -1.0427 C.ar    
  19 C19           -2.3049     4.9291     1.1380 C.ar    
  20 C20           -3.0975     6.0600     1.1501 C.ar    
  21 C21           -3.0867     6.9258     0.0693 C.ar    
  22 C22           -2.2845     6.6572    -1.0271 C.ar    
  23 F23           -3.8634     8.0311     0.0825 F       
  24 H24           -2.1104    -2.8437     0.0077 H       
  25 H25            2.1916    -2.7853    -0.0444 H       
  26 H26            2.1509    -5.2430    -0.0573 H       
  27 H27           -2.9181     1.6518    -0.9982 H       
  28 H28           -2.6298     0.7900     0.5323 H       
  29 H29           -3.1782     2.4832     0.5540 H       
  30 H30            1.7761     4.9894    -1.0149 H       
  31 H31            1.0769     5.5123     0.5363 H       
  32 H32            2.5040     4.4487     0.5168 H       
  33 H33           -0.8651     5.3181    -1.8980 H       
  34 H34           -2.3142     4.2537     1.9807 H       
  35 H35           -3.7265     6.2691     2.0027 H       
  36 H36           -2.2770     7.3337    -1.8689 H       
@<TRIPOS>BOND
   1    1    2 1
   2    1   11 1
   3    1   14 2
   4    2    3 3
   5    3    4 1
   6    4    5 ar
   7    4    6 ar
   8    5    9 ar
   9    5   24 1
  10    6    7 ar
  11    6   25 1
  12    7    8 ar
  13    7   26 1
  14    8    9 ar
  15    9   10 1
  16   11   12 2
  17   12   13 1
  18   12   16 1
  19   13   14 1
  20   13   17 1
  21   14   15 1
  22   15   27 1
  23   15   28 1
  24   15   29 1
  25   16   30 1
  26   16   31 1
  27   16   32 1
  28   17   18 ar
  29   17   19 ar
  30   18   22 ar
  31   18   33 1
  32   19   20 ar
  33   19   34 1
  34   20   21 ar
  35   20   35 1
  36   21   22 ar
  37   21   23 1
  38   22   36 1

#	End of record

