#	Name: ASD00061019
#	Creating user name:	WinNT
#	Creation time:	15. 06. 2019 18:29

#	Modifying user name:	WinNT
#	Modification time:	15. 06. 2019 18:29

#	Program:	/corina/corina34_cracker 3.40 0067  02.08.2006

@<TRIPOS>MOLECULE
ASD00061019
  40   42    0    0    0
SMALL
NO_CHARGES


@<TRIPOS>ATOM
   1 C1             0.4609     0.6899     0.3662 C.ar    
   2 C2             0.2433    -0.6793     0.4123 C.ar    
   3 N3            -1.0662    -1.1710     0.3206 N.am    
   4 C4            -2.0166    -0.6325     1.1067 C.2     
   5 C5            -1.6503     0.4016     2.1341 C.3     
   6 C6            -1.4850     1.7736     1.4802 C.3     
   7 C7            -0.7014     1.6264     0.1743 C.3     
   8 C8             1.7451     1.1862     0.4787 C.ar    
   9 C9             2.8107     0.3174     0.6263 C.ar    
  10 C10            2.5962    -1.0485     0.6618 C.ar    
  11 C11            1.3132    -1.5505     0.5556 C.ar    
  12 O12           -3.1716    -0.9822     0.9855 O.2     
  13 C13           -1.3941    -2.2506    -0.6139 C.3     
  14 S14           -2.9591     0.4899     3.3871 S.3     
  15 C15           -2.2719     1.5641     4.6030 C.ar    
  16 C16           -2.5865     2.9182     4.5944 C.ar    
  17 C17           -2.0455     3.7576     5.5497 C.ar    
  18 C18           -1.1918     3.2522     6.5132 C.ar    
  19 C19           -0.8764     1.9057     6.5251 C.ar    
  20 C20           -1.4183     1.0588     5.5769 C.ar    
  21 Cl21          -1.0216    -0.6312     5.5929 Cl      
  22 Cl22          -3.6572     3.5541     3.3847 Cl      
  23 C23           -1.2168    -3.5803     0.0726 C.2     
  24 O24           -0.8537    -3.6220     1.2243 O.2     
  25 O25           -1.4621    -4.7185    -0.5953 O.3     
  26 H26           -0.7136     0.1165     2.6130 H       
  27 H27           -2.4674     2.1959     1.2687 H       
  28 H28           -0.9432     2.4352     2.1560 H       
  29 H29           -0.3306     2.6032    -0.1361 H       
  30 H30           -1.3597     1.2304    -0.5990 H       
  31 H31            1.9168     2.2522     0.4510 H       
  32 H32            3.8143     0.7068     0.7140 H       
  33 H33            3.4322    -1.7232     0.7729 H       
  34 H34            1.1442    -2.6168     0.5832 H       
  35 H35           -2.4284    -2.1459    -0.9415 H       
  36 H36           -0.7321    -2.1967    -1.4781 H       
  37 H37           -2.2894     4.8097     5.5437 H       
  38 H38           -0.7700     3.9107     7.2580 H       
  39 H39           -0.2093     1.5147     7.2792 H       
  40 H40           -1.3344    -5.5468    -0.1130 H       
@<TRIPOS>BOND
   1    1    2 ar
   2    1    8 ar
   3    1    7 1
   4    2    3 1
   5    2   11 ar
   6    3    4 am
   7    3   13 1
   8    4    5 1
   9    4   12 2
  10    5    6 1
  11    5   14 1
  12    5   26 1
  13    6    7 1
  14    6   27 1
  15    6   28 1
  16    7   29 1
  17    7   30 1
  18    8    9 ar
  19    8   31 1
  20    9   10 ar
  21    9   32 1
  22   10   11 ar
  23   10   33 1
  24   11   34 1
  25   13   23 1
  26   13   35 1
  27   13   36 1
  28   14   15 1
  29   15   16 ar
  30   15   20 ar
  31   16   17 ar
  32   16   22 1
  33   17   18 ar
  34   17   37 1
  35   18   19 ar
  36   18   38 1
  37   19   20 ar
  38   19   39 1
  39   20   21 1
  40   23   24 2
  41   23   25 1
  42   25   40 1

#	End of record

