#	Name: ASD03331734
#	Creating user name:	WinNT
#	Creation time:	15. 06. 2019 20:39

#	Modifying user name:	WinNT
#	Modification time:	15. 06. 2019 20:39

#	Program:	/corina/corina34_cracker 3.40 0067  02.08.2006

@<TRIPOS>MOLECULE
ASD03331734
  59   61    0    0    0
SMALL
NO_CHARGES


@<TRIPOS>ATOM
   1 C1            -0.3689     0.5501    -1.2845 C.2     
   2 N2            -0.4881    -0.7969    -1.1246 N.pl3   
   3 C3            -1.7739    -1.0519    -0.7462 C.2     
   4 C4            -2.4170     0.1413    -0.6778 C.2     
   5 N5            -1.5311     1.1071    -1.0076 N.2     
   6 C6             0.5242    -1.8414    -1.3024 C.3     
   7 C7             0.0225    -3.1163    -0.6119 C.3     
   8 N8            -1.3523    -3.4077    -1.0415 N.3     
   9 C9            -2.3051    -2.4358    -0.4752 C.3     
  10 C10           -1.7328    -4.7828    -0.6921 C.3     
  11 C11           -3.8278     0.3474    -0.3046 C.2     
  12 N12           -4.3425     1.5928    -0.2768 N.am    
  13 O13           -4.5276    -0.6062    -0.0216 O.2     
  14 C14           -5.7448     1.7977     0.0943 C.3     
  15 C15           -6.2421     3.0845    -0.5124 C.2     
  16 C16           -5.8636     1.8727     1.6178 C.3     
  17 C17           -5.0237     3.0411     2.1378 C.3     
  18 C18           -7.3283     2.0853     2.0053 C.3     
  19 C19           -5.3574     0.5669     2.2338 C.3     
  20 N20           -7.5659     3.2990    -0.6463 N.am    
  21 O21           -5.4510     3.9270    -0.8801 O.2     
  22 C22           -8.0520     4.5840    -1.1548 C.3     
  23 C23            0.8193     1.2445    -1.6803 C.1     
  24 C24            1.7934     1.8138    -2.0049 C.1     
  25 C25            2.9816     2.5081    -2.4007 C.ar    
  26 C26            2.9720     3.9001    -2.5290 C.ar    
  27 C27            4.1202     4.5617    -2.9107 C.ar    
  28 C28            5.2799     3.8512    -3.1664 C.ar    
  29 C29            5.2970     2.4730    -3.0420 C.ar    
  30 C30            4.1584     1.7979    -2.6552 C.ar    
  31 H31            0.6726    -2.0328    -2.3652 H       
  32 H32            1.4639    -1.5238    -0.8505 H       
  33 H33            0.6701    -3.9516    -0.8786 H       
  34 H34            0.0421    -2.9748     0.4687 H       
  35 H35           -2.3956    -2.5920     0.5998 H       
  36 H36           -3.2794    -2.5558    -0.9490 H       
  37 H37           -1.6018    -4.9350     0.3793 H       
  38 H38           -2.7767    -4.9496    -0.9577 H       
  39 H39           -1.1023    -5.4843    -1.2385 H       
  40 H40           -3.7844     2.3533    -0.5024 H       
  41 H41           -6.3440     0.9659    -0.2763 H       
  42 H42           -5.3843     3.9714     1.6990 H       
  43 H43           -5.1083     3.0946     3.2232 H       
  44 H44           -3.9802     2.8897     1.8618 H       
  45 H45           -7.9243     1.2456     1.6478 H       
  46 H46           -7.4109     2.1538     3.0900 H       
  47 H47           -7.6933     3.0080     1.5542 H       
  48 H48           -4.3139     0.4154     1.9577 H       
  49 H49           -5.4420     0.6204     3.3192 H       
  50 H50           -5.9557    -0.2655     1.8633 H       
  51 H51           -8.1968     2.6025    -0.4059 H       
  52 H52           -7.7209     5.3850    -0.4939 H       
  53 H53           -7.6554     4.7520    -2.1561 H       
  54 H54           -9.1412     4.5712    -1.1929 H       
  55 H55            2.0676     4.4559    -2.3300 H       
  56 H56            4.1142     5.6371    -3.0105 H       
  57 H57            6.1760     4.3749    -3.4650 H       
  58 H58            6.2056     1.9252    -3.2440 H       
  59 H59            4.1733     0.7223    -2.5585 H       
@<TRIPOS>BOND
   1    1    2 1
   2    1   23 1
   3    1    5 2
   4    2    3 1
   5    2    6 1
   6    3    4 2
   7    3    9 1
   8    4    5 1
   9    4   11 1
  10    6    7 1
  11    6   31 1
  12    6   32 1
  13    7    8 1
  14    7   33 1
  15    7   34 1
  16    8    9 1
  17    8   10 1
  18    9   35 1
  19    9   36 1
  20   10   37 1
  21   10   38 1
  22   10   39 1
  23   11   12 am
  24   11   13 2
  25   12   14 1
  26   12   40 1
  27   14   15 1
  28   14   16 1
  29   14   41 1
  30   15   20 am
  31   15   21 2
  32   16   17 1
  33   16   18 1
  34   16   19 1
  35   17   42 1
  36   17   43 1
  37   17   44 1
  38   18   45 1
  39   18   46 1
  40   18   47 1
  41   19   48 1
  42   19   49 1
  43   19   50 1
  44   20   22 1
  45   20   51 1
  46   22   52 1
  47   22   53 1
  48   22   54 1
  49   23   24 3
  50   24   25 1
  51   25   26 ar
  52   25   30 ar
  53   26   27 ar
  54   26   55 1
  55   27   28 ar
  56   27   56 1
  57   28   29 ar
  58   28   57 1
  59   29   30 ar
  60   29   58 1
  61   30   59 1

#	End of record

