#	Name: ASD02500111
#	Creating user name:	WinNT
#	Creation time:	15. 06. 2019 20:22

#	Modifying user name:	WinNT
#	Modification time:	15. 06. 2019 20:22

#	Program:	/corina/corina34_cracker 3.40 0067  02.08.2006

@<TRIPOS>MOLECULE
ASD02500111
  69   73    0    0    0
SMALL
NO_CHARGES


@<TRIPOS>ATOM
   1 N1            -3.4480     5.5855    -0.0545 N.ar    
   2 C2            -4.5701     6.2276    -0.2709 C.ar    
   3 C3            -5.6905     6.0384     0.5355 C.ar    
   4 C4            -5.6362     5.1643     1.5835 C.ar    
   5 C5            -4.4296     4.4762     1.8127 C.ar    
   6 C6            -4.2984     3.5627     2.8706 C.ar    
   7 C7            -3.1144     2.9173     3.0594 C.ar    
   8 C8            -2.0301     3.1517     2.2166 C.ar    
   9 C9            -2.1224     4.0305     1.1814 C.ar    
  10 C10           -3.3281     4.7162     0.9541 C.ar    
  11 S11           -0.7353     4.3085     0.1310 S.o2    
  12 O12           -0.5617     5.7171     0.0599 O.2     
  13 O13            0.2842     3.4209     0.5693 O.2     
  14 N14           -1.1648     3.8130    -1.3896 N.am    
  15 C15           -1.3891     2.4620    -1.6445 C.ar    
  16 C16           -1.0700     1.9260    -2.8939 C.ar    
  17 C17           -1.2919     0.5878    -3.1472 C.ar    
  18 C18           -1.8362    -0.2288    -2.1508 C.ar    
  19 C19           -2.1534     0.3131    -0.9027 C.ar    
  20 C20           -1.9248     1.6484    -0.6529 C.ar    
  21 C21           -2.0755    -1.6598    -2.4173 C.2     
  22 O22           -2.5224    -2.0117    -3.4921 O.2     
  23 N23           -1.7989    -2.5773    -1.4696 N.am    
  24 C24           -1.9337    -3.9412    -1.7858 C.3     
  25 C25           -2.9463    -4.6224    -0.8304 C.3     
  26 N26           -2.3322    -4.7513     0.4753 N.3     
  27 C27           -2.6251    -3.6540     1.4205 C.3     
  28 C28           -2.5500    -2.2652     0.7882 C.3     
  29 C29           -1.3589    -2.1151    -0.1374 C.3     
  30 C30           -2.6232    -5.9958     1.0458 C.ar    
  31 C31           -1.5979    -6.9048     1.3000 C.ar    
  32 C32           -1.8916    -8.1343     1.8650 C.ar    
  33 C33           -3.2000    -8.4585     2.1754 C.ar    
  34 C34           -4.2175    -7.5578     1.9232 C.ar    
  35 C35           -3.9320    -6.3255     1.3649 C.ar    
  36 O36           -0.3119    -6.5851     0.9934 O.3     
  37 C37            0.6867    -7.5657     1.2818 C.3     
  38 O38           -0.5412     2.7228    -3.8611 O.3     
  39 C39           -0.2389     2.1077    -5.1150 C.3     
  40 H40           -4.6277     6.9220    -1.0961 H       
  41 H41           -6.6009     6.5827     0.3323 H       
  42 H42           -6.4950     5.0056     2.2190 H       
  43 H43           -5.1317     3.3732     3.5311 H       
  44 H44           -3.0143     2.2147     3.8735 H       
  45 H45           -1.1013     2.6278     2.3875 H       
  46 H46           -1.2603     4.4635    -2.1028 H       
  47 H47           -1.0460     0.1719    -4.1131 H       
  48 H48           -2.5738    -0.3160    -0.1321 H       
  49 H49           -2.1664     2.0649     0.3138 H       
  50 H50           -2.2859    -4.0393    -2.8126 H       
  51 H51           -0.9642    -4.4302    -1.6904 H       
  52 H52           -3.8454    -4.0110    -0.7534 H       
  53 H53           -3.2035    -5.6101    -1.2132 H       
  54 H54           -3.6270    -3.7996     1.8242 H       
  55 H55           -1.9108    -3.7019     2.2425 H       
  56 H56           -3.4637    -2.0857     0.2216 H       
  57 H57           -2.4765    -1.5203     1.5806 H       
  58 H58           -0.5313    -2.7303     0.2156 H       
  59 H59           -1.0522    -1.0704    -0.1883 H       
  60 H60           -1.0989    -8.8406     2.0630 H       
  61 H61           -3.4271    -9.4181     2.6157 H       
  62 H62           -5.2377    -7.8155     2.1666 H       
  63 H63           -4.7284    -5.6217     1.1730 H       
  64 H64            1.6652    -7.1846     0.9895 H       
  65 H65            0.6855    -7.7823     2.3501 H       
  66 H66            0.4712    -8.4782     0.7258 H       
  67 H67            0.1756     2.8524    -5.7945 H       
  68 H68            0.4883     1.3102    -4.9625 H       
  69 H69           -1.1501     1.6913    -5.5444 H       
@<TRIPOS>BOND
   1    1    2 ar
   2    1   10 ar
   3    2    3 ar
   4    2   40 1
   5    3    4 ar
   6    3   41 1
   7    4    5 ar
   8    4   42 1
   9    5    6 ar
  10    5   10 ar
  11    6    7 ar
  12    6   43 1
  13    7    8 ar
  14    7   44 1
  15    8    9 ar
  16    8   45 1
  17    9   10 ar
  18    9   11 1
  19   11   12 2
  20   11   13 2
  21   11   14 am
  22   14   15 1
  23   14   46 1
  24   15   16 ar
  25   15   20 ar
  26   16   17 ar
  27   16   38 1
  28   17   18 ar
  29   17   47 1
  30   18   19 ar
  31   18   21 1
  32   19   20 ar
  33   19   48 1
  34   20   49 1
  35   21   22 2
  36   21   23 am
  37   23   24 1
  38   23   29 1
  39   24   25 1
  40   24   50 1
  41   24   51 1
  42   25   26 1
  43   25   52 1
  44   25   53 1
  45   26   27 1
  46   26   30 1
  47   27   28 1
  48   27   54 1
  49   27   55 1
  50   28   29 1
  51   28   56 1
  52   28   57 1
  53   29   58 1
  54   29   59 1
  55   30   31 ar
  56   30   35 ar
  57   31   32 ar
  58   31   36 1
  59   32   33 ar
  60   32   60 1
  61   33   34 ar
  62   33   61 1
  63   34   35 ar
  64   34   62 1
  65   35   63 1
  66   36   37 1
  67   37   64 1
  68   37   65 1
  69   37   66 1
  70   38   39 1
  71   39   67 1
  72   39   68 1
  73   39   69 1

#	End of record

