#	Name: ASD08710038
#	Creating user name:	WinNT
#	Creation time:	15. 06. 2019 21:19

#	Modifying user name:	WinNT
#	Modification time:	15. 06. 2019 21:19

#	Program:	/corina/corina34_cracker 3.40 0067  02.08.2006

@<TRIPOS>MOLECULE
ASD08710038
  60   63    0    0    0
SMALL
NO_CHARGES


@<TRIPOS>ATOM
   1 C1            -0.3586     1.7756     0.7304 C.ar    
   2 C2            -0.2379     0.4080     0.5693 C.ar    
   3 C3             0.7733     2.5605     0.8461 C.ar    
   4 C4             2.0261     1.9779     0.8007 C.ar    
   5 C5             2.1468     0.6102     0.6400 C.ar    
   6 C6             1.0149    -0.1747     0.5239 C.ar    
   7 S7             1.1688    -1.9180     0.3196 S.o2    
   8 O8            -0.0300    -2.3562    -0.3050 O.2     
   9 O9             2.4594    -2.1452    -0.2299 O.2     
  10 N10            1.1800    -2.5898     1.8332 N.am    
  11 C11           -0.0749    -3.0000     2.4788 C.3     
  12 C12            2.4456    -2.7921     2.5524 C.3     
  13 C13            2.5533    -4.2697     2.9488 C.3     
  14 N14            1.2979    -4.6748     3.5967 N.am    
  15 C15            0.0381    -4.4773     2.8754 C.3     
  16 C16            1.3071    -5.2224     4.8282 C.2     
  17 C17            2.5895    -5.5393     5.4849 C.ar    
  18 O18            0.2584    -5.4552     5.3979 O.2     
  19 C19            2.7720    -5.2518     6.8407 C.ar    
  20 C20            3.9694    -5.5486     7.4505 C.ar    
  21 C21            4.9985    -6.1345     6.7185 C.ar    
  22 C22            4.8199    -6.4221     5.3681 C.ar    
  23 C23            3.6228    -6.1330     4.7540 C.ar    
  24 C24            0.6417     4.0515     1.0213 C.3     
  25 N25            6.2074    -6.4328     7.3374 N.pl3   
  26 F26            0.5753     4.3568     2.3850 F       
  27 F27            1.7514     4.6874     0.4545 F       
  28 F28           -0.5240     4.4944     0.3870 F       
  29 C29            7.2914    -7.0494     6.5686 C.3     
  30 C30            8.6363    -6.7178     7.2225 C.3     
  31 C31            9.7556    -7.4304     6.4589 C.3     
  32 O32            9.5059    -8.8375     6.4536 O.3     
  33 C33            8.2845    -9.2109     5.8127 C.3     
  34 C34            7.1061    -8.5698     6.5504 C.3     
  35 H35           -1.3373     2.2313     0.7614 H       
  36 H36           -1.1222    -0.2054     0.4793 H       
  37 H37            2.9105     2.5912     0.8904 H       
  38 H38            3.1256     0.1551     0.6038 H       
  39 H39           -0.2433    -2.3941     3.3690 H       
  40 H40           -0.9037    -2.8704     1.7828 H       
  41 H41            3.2810    -2.5252     1.9050 H       
  42 H42            2.4607    -2.1710     3.4480 H       
  43 H43            2.7177    -4.8764     2.0582 H       
  44 H44            3.3829    -4.4027     3.6432 H       
  45 H45           -0.7988    -4.7428     3.5213 H       
  46 H46            0.0264    -5.1016     1.9819 H       
  47 H47            1.9741    -4.7969     7.4090 H       
  48 H48            4.1110    -5.3264     8.4978 H       
  49 H49            5.6202    -6.8763     4.8028 H       
  50 H50            3.4847    -6.3566     3.7065 H       
  51 H51            6.3330    -6.2326     8.2782 H       
  52 H52            7.2779    -6.6669     5.5480 H       
  53 H53            8.8015    -5.6409     7.1899 H       
  54 H54            8.6304    -7.0552     8.2589 H       
  55 H55            9.7869    -7.0630     5.4332 H       
  56 H56           10.7107    -7.2325     6.9454 H       
  57 H57            8.2966    -8.8667     4.7786 H       
  58 H58            8.1798   -10.2956     5.8338 H       
  59 H59            7.0693    -8.9446     7.5733 H       
  60 H60            6.1769    -8.8174     6.0371 H       
@<TRIPOS>BOND
   1    1    2 ar
   2    1    3 ar
   3    1   35 1
   4    2    6 ar
   5    2   36 1
   6    3    4 ar
   7    3   24 1
   8    4    5 ar
   9    4   37 1
  10    5    6 ar
  11    5   38 1
  12    6    7 1
  13    7    8 2
  14    7    9 2
  15    7   10 am
  16   10   11 1
  17   10   12 1
  18   11   15 1
  19   11   39 1
  20   11   40 1
  21   12   13 1
  22   12   41 1
  23   12   42 1
  24   13   14 1
  25   13   43 1
  26   13   44 1
  27   14   15 1
  28   14   16 am
  29   15   45 1
  30   15   46 1
  31   16   17 1
  32   16   18 2
  33   17   19 ar
  34   17   23 ar
  35   19   20 ar
  36   19   47 1
  37   20   21 ar
  38   20   48 1
  39   21   22 ar
  40   21   25 1
  41   22   23 ar
  42   22   49 1
  43   23   50 1
  44   24   26 1
  45   24   27 1
  46   24   28 1
  47   25   29 1
  48   25   51 1
  49   29   30 1
  50   29   34 1
  51   29   52 1
  52   30   31 1
  53   30   53 1
  54   30   54 1
  55   31   32 1
  56   31   55 1
  57   31   56 1
  58   32   33 1
  59   33   34 1
  60   33   57 1
  61   33   58 1
  62   34   59 1
  63   34   60 1

#	End of record

