#	Name: ASD06352009
#	Creating user name:	WinNT
#	Creation time:	15. 06. 2019 21:06

#	Modifying user name:	WinNT
#	Modification time:	15. 06. 2019 21:06

#	Program:	/corina/corina34_cracker 3.40 0067  02.08.2006

@<TRIPOS>MOLECULE
ASD06352009
 117  117    0    0    0
SMALL
NO_CHARGES


@<TRIPOS>ATOM
   1 C1            -3.0363     4.4064     3.6186 C.2     
   2 O2            -2.5228     3.3175     3.4719 O.2     
   3 N3            -0.8529     5.1034     4.4260 N.3     
   4 C4            -2.2245     5.5558     4.1579 C.3     
   5 C5            -6.2568     4.0115     1.9349 C.2     
   6 O6            -6.5150     5.1963     1.9549 O.2     
   7 N7            -4.3314     4.5899     3.2940 N.am    
   8 C8            -5.1189     3.4741     2.7640 C.3     
   9 C9            -5.6787     2.6485     3.9242 C.3     
  10 C10           -4.5255     1.9946     4.6879 C.3     
  11 C11           -6.4627     3.5621     4.8685 C.3     
  12 C12           -9.3612     2.7923     0.8417 C.2     
  13 O13           -9.2119     1.8509     1.5916 O.2     
  14 N14           -6.9876     3.1754     1.1711 N.am    
  15 C15           -8.1864     3.6670     0.4873 C.3     
  16 C16           -7.9615     3.6307    -1.0257 C.3     
  17 C17           -6.7880     4.5072    -1.3803 C.2     
  18 O18           -6.1740     5.0814    -0.5062 O.2     
  19 N19           -6.4209     4.6530    -2.6689 N.am    
  20 C20          -12.9530     2.7115    -0.0336 C.2     
  21 O21          -12.8846     3.6862    -0.7520 O.2     
  22 N22          -10.5778     3.0561     0.3252 N.am    
  23 C23          -11.7199     2.2057     0.6698 C.3     
  24 C24          -16.5507     2.2749     0.1641 C.2     
  25 O25          -16.5222     1.5617     1.1447 O.2     
  26 N26          -14.1319     2.0805     0.1356 N.am    
  27 C27          -15.3000     2.4879    -0.6492 C.3     
  28 C28          -15.3736     1.6495    -1.9269 C.3     
  29 C29          -15.2924     0.1644    -1.5679 C.3     
  30 C30          -16.6281    -0.2911    -0.9767 C.3     
  31 C31          -14.2065     2.0166    -2.8457 C.3     
  32 C32          -19.4229     1.4538     0.7758 C.2     
  33 O33          -18.8611     0.5414     0.2077 O.2     
  34 N34          -17.7008     2.8769    -0.1982 N.am    
  35 C35          -18.9515     2.8709     0.5747 C.3     
  36 C36          -19.9971     3.6614    -0.2398 C.3     
  37 C37          -19.4401     3.5866    -1.6860 C.3     
  38 C38          -17.9112     3.6558    -1.4320 C.3     
  39 C39          -22.3810    -0.1715     2.1800 C.2     
  40 O40          -22.9755     0.8799     2.2892 O.2     
  41 N41          -20.4690     1.2003     1.5870 N.am    
  42 C42          -20.9273    -0.1773     1.7825 C.3     
  43 C43          -20.0994    -0.8384     2.8863 C.3     
  44 C44          -18.6126    -0.7334     2.5410 C.3     
  45 O45          -20.3478    -0.1775     4.1287 O.3     
  46 C46          -24.5459    -1.1340     4.2906 C.2     
  47 O47          -23.5481    -1.0122     4.9610 O.2     
  48 N48          -23.0202    -1.3347     2.4141 N.am    
  49 C49          -24.4333    -1.3290     2.8005 C.3     
  50 C50          -25.0740    -2.6627     2.4108 C.3     
  51 C51          -25.0715    -2.8039     0.8874 C.3     
  52 C52          -25.7121    -4.1375     0.4977 C.3     
  53 N53          -25.7097    -4.2727    -0.9610 N.pl3   
  54 C54          -26.2380    -5.3981    -1.5480 C.2     
  55 N55          -26.7410    -6.3448    -0.8065 N.2     
  56 N56          -26.2358    -5.5250    -2.9169 N.pl3   
  57 O57          -25.7546    -1.0956     4.8730 O.3     
  58 H58           -0.2880     5.8566     4.7888 H       
  59 H59           -0.8488     4.3136     5.0539 H       
  60 H60           -2.2043     6.3621     3.4247 H       
  61 H61           -2.6752     5.9167     5.0824 H       
  62 H62           -4.7421     5.4608     3.4113 H       
  63 H63           -4.4830     2.8433     2.1428 H       
  64 H64           -6.3406     1.8755     3.5338 H       
  65 H65           -3.9308     2.7656     5.1779 H       
  66 H66           -4.9267     1.3134     5.4383 H       
  67 H67           -3.8974     1.4390     3.9916 H       
  68 H68           -7.2843     4.0279     4.3244 H       
  69 H69           -6.8615     2.9739     5.6950 H       
  70 H70           -5.8008     4.3351     5.2588 H       
  71 H71           -6.7199     2.2481     1.0741 H       
  72 H72           -8.3887     4.6914     0.8000 H       
  73 H73           -7.7576     2.6065    -1.3382 H       
  74 H74           -8.8540     3.9949    -1.5345 H       
  75 H75           -6.9121     4.1937    -3.3681 H       
  76 H76           -5.6656     5.2172    -2.8972 H       
  77 H77          -10.6972     3.8090    -0.2745 H       
  78 H78          -11.8801     2.2316     1.7476 H       
  79 H79          -11.5176     1.1814     0.3570 H       
  80 H80          -14.2069     1.3567     0.7770 H       
  81 H81          -15.2121     3.5423    -0.9110 H       
  82 H82          -16.3153     1.8487    -2.4384 H       
  83 H83          -15.0758    -0.4150    -2.4653 H       
  84 H84          -14.4997     0.0104    -0.8358 H       
  85 H85          -17.4386    -0.0044    -1.6468 H       
  86 H86          -16.6217    -1.3744    -0.8568 H       
  87 H87          -16.7754     0.1812    -0.0054 H       
  88 H88          -13.2692     1.7060    -2.3841 H       
  89 H89          -14.3251     1.5102    -3.8036 H       
  90 H90          -14.1939     3.0950    -3.0038 H       
  91 H91          -18.7923     3.3492     1.5412 H       
  92 H92          -20.9751     3.1840    -0.1781 H       
  93 H93          -20.0495     4.6956     0.1004 H       
  94 H94          -19.7180     2.6471    -2.1637 H       
  95 H95          -19.7749     4.4383    -2.2781 H       
  96 H96          -17.5947     4.6887    -1.2872 H       
  97 H97          -17.3684     3.2047    -2.2626 H       
  98 H98          -20.9184     1.9301     2.0413 H       
  99 H99          -20.8067    -0.7356     0.8541 H       
 100 H100         -20.3794    -1.8885     2.9710 H       
 101 H101         -18.3326     0.3167     2.4563 H       
 102 H102         -18.0228    -1.2043     3.3274 H       
 103 H103         -18.4232    -1.2375     1.5934 H       
 104 H104         -20.1212     0.7626     4.1263 H       
 105 H105         -22.5447    -2.1756     2.3267 H       
 106 H106         -24.9469    -0.5157     2.2878 H       
 107 H107         -24.5059    -3.4814     2.8525 H       
 108 H108         -26.1002    -2.6935     2.7769 H       
 109 H109         -25.6395    -1.9851     0.4457 H       
 110 H110         -24.0452    -2.7730     0.5213 H       
 111 H111         -25.1440    -4.9563     0.9394 H       
 112 H112         -26.7383    -4.1684     0.8638 H       
 113 H113         -25.3354    -3.5682    -1.5128 H       
 114 H114         -27.1138    -7.1388    -1.2206 H       
 115 H115         -25.8615    -4.8205    -3.4687 H       
 116 H116         -26.6086    -6.3190    -3.3310 H       
 117 H117         -25.7763    -0.9685     5.8313 H       
@<TRIPOS>BOND
   1    1    2 2
   2    1    4 1
   3    1    7 am
   4    3    4 1
   5    3   58 1
   6    3   59 1
   7    4   60 1
   8    4   61 1
   9    5    6 2
  10    5    8 1
  11    5   14 am
  12    7    8 1
  13    7   62 1
  14    8    9 1
  15    8   63 1
  16    9   10 1
  17    9   11 1
  18    9   64 1
  19   10   65 1
  20   10   66 1
  21   10   67 1
  22   11   68 1
  23   11   69 1
  24   11   70 1
  25   12   13 2
  26   12   15 1
  27   12   22 am
  28   14   15 1
  29   14   71 1
  30   15   16 1
  31   15   72 1
  32   16   17 1
  33   16   73 1
  34   16   74 1
  35   17   18 2
  36   17   19 am
  37   19   75 1
  38   19   76 1
  39   20   21 2
  40   20   23 1
  41   20   26 am
  42   22   23 1
  43   22   77 1
  44   23   78 1
  45   23   79 1
  46   24   25 2
  47   24   27 1
  48   24   34 am
  49   26   27 1
  50   26   80 1
  51   27   28 1
  52   27   81 1
  53   28   29 1
  54   28   31 1
  55   28   82 1
  56   29   30 1
  57   29   83 1
  58   29   84 1
  59   30   85 1
  60   30   86 1
  61   30   87 1
  62   31   88 1
  63   31   89 1
  64   31   90 1
  65   32   33 2
  66   32   41 am
  67   32   35 1
  68   34   35 1
  69   34   38 1
  70   35   36 1
  71   35   91 1
  72   36   37 1
  73   36   92 1
  74   36   93 1
  75   37   38 1
  76   37   94 1
  77   37   95 1
  78   38   96 1
  79   38   97 1
  80   39   40 2
  81   39   42 1
  82   39   48 am
  83   41   42 1
  84   41   98 1
  85   42   43 1
  86   42   99 1
  87   43   44 1
  88   43   45 1
  89   43  100 1
  90   44  101 1
  91   44  102 1
  92   44  103 1
  93   45  104 1
  94   46   47 2
  95   46   49 1
  96   46   57 1
  97   48   49 1
  98   48  105 1
  99   49   50 1
 100   49  106 1
 101   50   51 1
 102   50  107 1
 103   50  108 1
 104   51   52 1
 105   51  109 1
 106   51  110 1
 107   52   53 1
 108   52  111 1
 109   52  112 1
 110   53   54 1
 111   53  113 1
 112   54   55 2
 113   54   56 1
 114   55  114 1
 115   56  115 1
 116   56  116 1
 117   57  117 1

#	End of record

