#	Name: ASD05303002
#	Creating user name:	WinNT
#	Creation time:	15. 06. 2019 20:58

#	Modifying user name:	WinNT
#	Modification time:	15. 06. 2019 20:58

#	Program:	/corina/corina34_cracker 3.40 0067  02.08.2006

@<TRIPOS>MOLECULE
ASD05303002
  55   55    0    0    0
SMALL
NO_CHARGES


@<TRIPOS>ATOM
   1 C1            -0.1622     1.5018    -0.5430 C.2     
   2 N2             1.0759    -0.4758    -1.2104 N.pl3   
   3 C3            -0.1375    -0.0050    -0.5379 C.3     
   4 O4             0.7446     2.1214    -1.0578 O.2     
   5 N5            -1.1946     2.1607     0.0195 N.am    
   6 C6            -1.1627     3.5560     0.1198 C.ar    
   7 C7            -2.3389     4.2879     0.0203 C.ar    
   8 C8            -2.3041     5.6648     0.1197 C.ar    
   9 C9            -1.0997     6.3151     0.3180 C.ar    
  10 C10            0.0730     5.5894     0.4169 C.ar    
  11 C11            0.0441     4.2114     0.3245 C.ar    
  12 C12            1.3833     6.3020     0.6325 C.3     
  13 N13            1.6349     6.4391     2.0733 N.3     
  14 C14            3.0031     6.9120     2.3263 C.3     
  15 C15            3.1990     7.1173     3.8302 C.3     
  16 N16            2.9442     5.8516     4.5321 N.3     
  17 C17            1.5760     5.3787     4.2791 C.3     
  18 C18            1.3800     5.1733     2.7751 C.3     
  19 C19           -3.6517     3.5803    -0.1962 C.3     
  20 C20            1.3214    -1.8470    -1.3305 C.ar    
  21 C21            2.4715    -2.2942    -1.9678 C.ar    
  22 C22            2.7119    -3.6509    -2.0853 C.ar    
  23 C23            1.8049    -4.5635    -1.5673 C.ar    
  24 C24            0.6590    -4.1182    -0.9322 C.ar    
  25 C25            0.4185    -2.7632    -0.8076 C.ar    
  26 F26            2.0403    -5.8888    -1.6833 F       
  27 F27            3.8302    -4.0875    -2.7050 F       
  28 H28            1.7090     0.1638    -1.5724 H       
  29 H29           -0.1457    -0.3651     0.4909 H       
  30 H30           -1.0142    -0.3846    -1.0627 H       
  31 H31           -1.9597     1.6677     0.3548 H       
  32 H32           -3.2183     6.2346     0.0421 H       
  33 H33           -1.0751     7.3920     0.3954 H       
  34 H34            0.9598     3.6448     0.4070 H       
  35 H35            2.1890     5.7271     0.1760 H       
  36 H36            1.3385     7.2907     0.1758 H       
  37 H37            3.7165     6.1717     1.9643 H       
  38 H38            3.1633     7.8566     1.8064 H       
  39 H39            4.2221     7.4404     4.0229 H       
  40 H40            2.5040     7.8774     4.1871 H       
  41 H41            3.6226     5.1513     4.2726 H       
  42 H42            1.4158     4.4341     4.7990 H       
  43 H43            0.8626     6.1190     4.6411 H       
  44 H44            0.3570     4.8503     2.5825 H       
  45 H45            2.0750     4.4133     2.4182 H       
  46 H46           -4.0980     3.3392     0.7686 H       
  47 H47           -4.3257     4.2283    -0.7565 H       
  48 H48           -3.4810     2.6615    -0.7573 H       
  49 H49            3.1770    -1.5831    -2.3716 H       
  50 H50           -0.0460    -4.8304    -0.5296 H       
  51 H51           -0.4740    -2.4168    -0.3078 H       
  52 H52            9.2221    12.8774     9.7990 H       
  53 Cl53           9.2221    14.2474     9.7990 Cl      
  54 H54           14.2221    19.2474    14.7990 H       
  55 Cl55          14.2221    20.6174    14.7990 Cl      
@<TRIPOS>BOND
   1    1    3 1
   2    1    4 2
   3    1    5 am
   4    2    3 1
   5    2   20 1
   6    2   28 1
   7    3   29 1
   8    3   30 1
   9    5    6 1
  10    5   31 1
  11    6    7 ar
  12    6   11 ar
  13    7    8 ar
  14    7   19 1
  15    8    9 ar
  16    8   32 1
  17    9   10 ar
  18    9   33 1
  19   10   11 ar
  20   10   12 1
  21   11   34 1
  22   12   13 1
  23   12   35 1
  24   12   36 1
  25   13   14 1
  26   13   18 1
  27   14   15 1
  28   14   37 1
  29   14   38 1
  30   15   16 1
  31   15   39 1
  32   15   40 1
  33   16   17 1
  34   16   41 1
  35   17   18 1
  36   17   42 1
  37   17   43 1
  38   18   44 1
  39   18   45 1
  40   19   46 1
  41   19   47 1
  42   19   48 1
  43   20   21 ar
  44   20   25 ar
  45   21   22 ar
  46   21   49 1
  47   22   23 ar
  48   22   27 1
  49   23   24 ar
  50   23   26 1
  51   24   25 ar
  52   24   50 1
  53   25   51 1
  54   52   53 1
  55   54   55 1

#	End of record

