#	Name: ASD09610013
#	Creating user name:	WinNT
#	Creation time:	15. 06. 2019 21:22

#	Modifying user name:	WinNT
#	Modification time:	15. 06. 2019 21:22

#	Program:	/corina/corina34_cracker 3.40 0067  02.08.2006

@<TRIPOS>MOLECULE
ASD09610013
  41   44    0    0    0
SMALL
NO_CHARGES


@<TRIPOS>ATOM
   1 N1            -0.0151     1.4366     0.2120 N.pl3   
   2 N2             0.0088     0.2316     0.9229 N.2     
   3 C3             1.2500    -0.1093     1.1352 C.2     
   4 C4             2.0794     0.8793     0.5596 C.2     
   5 C5             1.2507     1.8272    -0.0069 C.2     
   6 C6             3.5533     0.8959     0.5637 C.2     
   7 O7             4.1700    -0.0043     1.1007 O.2     
   8 N8             4.2176     1.9086    -0.0276 N.am    
   9 C9            -1.2184     2.1487    -0.2253 C.3     
  10 C10            1.7173    -1.3415     1.8661 C.3     
  11 F11            0.7814    -2.3674     1.6965 F       
  12 F12            2.9533    -1.7480     1.3520 F       
  13 C13            8.0428     4.7100    -0.1423 C.3     
  14 C14            7.7456     5.0357    -1.6402 C.3     
  15 C15            6.2010     4.9699    -1.7277 C.3     
  16 C16            5.7655     4.6130    -0.2713 C.3     
  17 C17            6.2634     3.1832    -0.0618 C.ar    
  18 C18            5.6128     1.9695     0.0501 C.ar    
  19 C19            6.3551     0.8086     0.2410 C.ar    
  20 C20            7.7329     0.8735     0.3173 C.ar    
  21 C21            8.3804     2.0926     0.2048 C.ar    
  22 C22            7.6477     3.2419     0.0165 C.ar    
  23 C23            6.8307     5.3942     0.5386 C.2     
  24 C24            6.7386     6.3124     1.4731 C.2     
  25 Cl25           8.1774     6.9834     2.1754 Cl      
  26 Cl26           5.1781     6.8552     2.0059 Cl      
  27 H27            1.5632     2.7187    -0.5302 H       
  28 H28            3.7280     2.5951    -0.5070 H       
  29 H29           -1.5294     2.8476     0.5512 H       
  30 H30           -1.0030     2.6969    -1.1425 H       
  31 H31           -2.0181     1.4315    -0.4100 H       
  32 H32            1.8215    -1.1166     2.9276 H       
  33 H33            9.0344     4.9817     0.2197 H       
  34 H34            8.1019     6.0342    -1.8934 H       
  35 H35            8.1988     4.2890    -2.2922 H       
  36 H36            5.7922     5.9359    -2.0243 H       
  37 H37            5.8892     4.1907    -2.4231 H       
  38 H38            4.7199     4.7977    -0.0247 H       
  39 H39            5.8539    -0.1440     0.3292 H       
  40 H40            8.3069    -0.0293     0.4654 H       
  41 H41            9.4576     2.1411     0.2652 H       
@<TRIPOS>BOND
   1    1    2 1
   2    1    5 1
   3    1    9 1
   4    2    3 2
   5    3    4 1
   6    3   10 1
   7    4    5 2
   8    4    6 1
   9    5   27 1
  10    6    7 2
  11    6    8 am
  12    8   18 1
  13    8   28 1
  14    9   29 1
  15    9   30 1
  16    9   31 1
  17   10   11 1
  18   10   12 1
  19   10   32 1
  20   13   14 1
  21   13   22 1
  22   13   23 1
  23   13   33 1
  24   14   15 1
  25   14   34 1
  26   14   35 1
  27   15   16 1
  28   15   36 1
  29   15   37 1
  30   16   17 1
  31   16   23 1
  32   16   38 1
  33   17   18 ar
  34   17   22 ar
  35   18   19 ar
  36   19   20 ar
  37   19   39 1
  38   20   21 ar
  39   20   40 1
  40   21   22 ar
  41   21   41 1
  42   23   24 2
  43   24   25 1
  44   24   26 1

#	End of record

