#	Name: ASD04590732
#	Creating user name:	WinNT
#	Creation time:	15. 06. 2019 20:51

#	Modifying user name:	WinNT
#	Modification time:	15. 06. 2019 20:51

#	Program:	/corina/corina34_cracker 3.40 0067  02.08.2006

@<TRIPOS>MOLECULE
ASD04590732
  60   65    0    0    0
SMALL
NO_CHARGES


@<TRIPOS>ATOM
   1 N1            -0.0171     1.3231    -0.0119 N.ar    
   2 C2             0.0017    -0.0035    -0.0051 C.ar    
   3 N3             1.1297    -0.6949    -0.0122 N.ar    
   4 C4             2.3049    -0.0729    -0.0266 C.ar    
   5 C5             2.3189     1.3365    -0.0341 C.ar    
   6 C6             1.1072     2.0202    -0.0262 C.ar    
   7 N7             3.6030    -0.5196    -0.0371 N.pl3   
   8 C8             4.4822     0.5494    -0.0513 C.ar    
   9 C9             3.7312     1.7384    -0.0501 C.ar    
  10 C10            5.8680     0.6416    -0.0662 C.ar    
  11 N11            6.4612     1.8178    -0.0786 N.ar    
  12 C12            5.7850     2.9530    -0.0779 C.ar    
  13 C13            4.4064     2.9583    -0.0635 C.ar    
  14 C14            4.0016    -1.9293    -0.0329 C.3     
  15 N15           -1.2023    -0.6889     0.0103 N.pl3   
  16 C16           -2.3999     0.0104     0.1310 C.ar    
  17 N17           -2.3780     1.3188     0.3317 N.ar    
  18 C18           -3.4900     2.0191     0.4517 C.ar    
  19 C19           -4.7245     1.4066     0.3713 C.ar    
  20 C20           -4.7911     0.0355     0.1615 C.ar    
  21 C21           -3.6087    -0.6709     0.0341 C.ar    
  22 C22           -5.9871     2.2176     0.5104 C.3     
  23 C23           -7.7576     3.2813    -0.7539 C.3     
  24 N24           -6.4128     2.6918    -0.8132 N.3     
  25 C25            3.4615    -2.6261     1.2283 C.3     
  26 C26            2.5281    -3.7543     0.7430 C.3     
  27 C27            3.0196    -4.0625    -0.6931 C.3     
  28 C28            3.3775    -2.6585    -1.2406 C.3     
  29 C29           -8.1309     3.8333    -2.1318 C.3     
  30 N30           -8.0775     2.7488    -3.1220 N.3     
  31 C31           -6.7327     2.1593    -3.1812 C.3     
  32 C32           -6.3594     1.6073    -1.8034 C.3     
  33 H33            1.0848     3.0999    -0.0316 H       
  34 H34            6.4644    -0.2588    -0.0674 H       
  35 H35            6.3204     3.8910    -0.0883 H       
  36 H36            3.8597     3.8897    -0.0631 H       
  37 H37            5.0880    -2.0100    -0.0677 H       
  38 H38           -1.2107    -1.6561    -0.0630 H       
  39 H39           -3.4334     3.0852     0.6151 H       
  40 H40           -5.7446    -0.4672     0.0949 H       
  41 H41           -3.6237    -1.7383    -0.1299 H       
  42 H42           -6.7715     1.5972     0.9437 H       
  43 H43           -5.7999     3.0728     1.1599 H       
  44 H44           -8.4772     2.5167    -0.4614 H       
  45 H45           -7.7683     4.0899    -0.0231 H       
  46 H46            4.2858    -3.0456     1.8051 H       
  47 H47            2.9028    -1.9153     1.8373 H       
  48 H48            2.6307    -4.6341     1.3783 H       
  49 H49            1.4931    -3.4128     0.7269 H       
  50 H50            3.9003    -4.7044    -0.6706 H       
  51 H51            2.2244    -4.5166    -1.2845 H       
  52 H52            2.4797    -2.1400    -1.5770 H       
  53 H53            4.1000    -2.7386    -2.0529 H       
  54 H54           -9.1395     4.2452    -2.0975 H       
  55 H55           -7.4271     4.6169    -2.4124 H       
  56 H56           -8.7727     2.0445    -2.9247 H       
  57 H57           -6.7219     1.3507    -3.9120 H       
  58 H58           -6.0130     2.9239    -3.4738 H       
  59 H59           -5.3508     1.1955    -1.8377 H       
  60 H60           -7.0632     0.8237    -1.5227 H       
@<TRIPOS>BOND
   1    1    2 ar
   2    1    6 ar
   3    2    3 ar
   4    2   15 1
   5    3    4 ar
   6    4    5 ar
   7    4    7 1
   8    5    6 ar
   9    5    9 1
  10    6   33 1
  11    7    8 1
  12    7   14 1
  13    8    9 ar
  14    8   10 ar
  15    9   13 ar
  16   10   11 ar
  17   10   34 1
  18   11   12 ar
  19   12   13 ar
  20   12   35 1
  21   13   36 1
  22   14   25 1
  23   14   28 1
  24   14   37 1
  25   15   16 1
  26   15   38 1
  27   16   17 ar
  28   16   21 ar
  29   17   18 ar
  30   18   19 ar
  31   18   39 1
  32   19   20 ar
  33   19   22 1
  34   20   21 ar
  35   20   40 1
  36   21   41 1
  37   22   24 1
  38   22   42 1
  39   22   43 1
  40   23   24 1
  41   23   29 1
  42   23   44 1
  43   23   45 1
  44   24   32 1
  45   25   26 1
  46   25   46 1
  47   25   47 1
  48   26   27 1
  49   26   48 1
  50   26   49 1
  51   27   28 1
  52   27   50 1
  53   27   51 1
  54   28   52 1
  55   28   53 1
  56   29   30 1
  57   29   54 1
  58   29   55 1
  59   30   31 1
  60   30   56 1
  61   31   32 1
  62   31   57 1
  63   31   58 1
  64   32   59 1
  65   32   60 1

#	End of record

