#	Name: ASD01941034
#	Creating user name:	WinNT
#	Creation time:	15. 06. 2019 20:13

#	Modifying user name:	WinNT
#	Modification time:	15. 06. 2019 20:13

#	Program:	/corina/corina34_cracker 3.40 0067  02.08.2006

@<TRIPOS>MOLECULE
ASD01941034
  60   64    0    0    0
SMALL
NO_CHARGES


@<TRIPOS>ATOM
   1 N1             0.5857     0.8464     0.0471 N.am    
   2 C2             0.5483    -0.4945     0.0843 C.2     
   3 N3            -0.5959    -1.1964     0.0007 N.am    
   4 C4            -1.8078    -0.5468    -0.1295 C.2     
   5 C5            -1.8212     0.8731    -0.1732 C.2     
   6 C6            -0.5423     1.5802    -0.0724 C.2     
   7 C7            -3.0028    -1.2300    -0.2187 C.2     
   8 C8            -4.1938    -0.5084    -0.3496 C.2     
   9 N9            -4.1917     0.8355    -0.3900 N.am    
  10 C10           -3.0322     1.5455    -0.3040 C.2     
  11 C11           -0.5581    -2.5971     0.0457 C.ar    
  12 C12           -0.1937    -3.3184    -1.0836 C.ar    
  13 C13           -0.1565    -4.6976    -1.0394 C.ar    
  14 C14           -0.4831    -5.3637     0.1346 C.ar    
  15 C15           -0.8471    -4.6423     1.2640 C.ar    
  16 C16           -0.8795    -3.2629     1.2211 C.ar    
  17 O17           -5.2534    -1.1092    -0.4288 O.2     
  18 N18           -3.0584     2.9121    -0.3469 N.pl3   
  19 C19           -2.8824     3.5775    -1.5657 C.ar    
  20 C20           -2.7870     2.8536    -2.7460 C.ar    
  21 C21           -2.6132     3.5129    -3.9478 C.ar    
  22 C22           -2.5337     4.8933    -3.9766 C.ar    
  23 C23           -2.6283     5.6194    -2.8026 C.ar    
  24 C24           -2.8084     4.9663    -1.5974 C.ar    
  25 O25            1.5951    -1.1017     0.1981 O.2     
  26 C26            1.8778     1.5298     0.1442 C.3     
  27 O27           -0.4963     2.7959    -0.1040 O.2     
  28 C28            2.8917     1.2864    -0.9755 C.3     
  29 C29            2.1720     2.6327    -0.8746 C.3     
  30 C30           -5.4625     1.5510    -0.5290 C.3     
  31 I31           -2.2689     5.8871    -5.8017 I       
  32 C32           -3.0248    -2.7362    -0.1761 C.3     
  33 F33           -2.9008     5.6751    -0.4509 F       
  34 N34           -0.4458    -6.7630     0.1793 N.am    
  35 C35           -1.2444    -7.4314     1.0349 C.2     
  36 C36           -1.1307    -8.9291     1.1580 C.3     
  37 O37           -2.0546    -6.8275     1.7057 O.2     
  38 H38            0.0603    -2.8003    -1.9966 H       
  39 H39            0.1262    -5.2586    -1.9179 H       
  40 H40           -1.1010    -5.1603     2.1770 H       
  41 H41           -1.1623    -2.7018     2.0995 H       
  42 H42           -3.1989     3.4203     0.4672 H       
  43 H43           -2.8482     1.7755    -2.7251 H       
  44 H44           -2.5390     2.9494    -4.8661 H       
  45 H45           -2.5658     6.6973    -2.8282 H       
  46 H46            2.2655     1.6609     1.1544 H       
  47 H47            3.9464     1.2577    -0.7020 H       
  48 H48            2.5973     0.6177    -1.7844 H       
  49 H49            1.4041     2.8499    -1.6171 H       
  50 H50            2.7533     3.4899    -0.5346 H       
  51 H51           -6.2865     0.8385    -0.4926 H       
  52 H52           -5.5663     2.2686     0.2849 H       
  53 H53           -5.4801     2.0784    -1.4828 H       
  54 H54           -3.0093    -3.0706     0.8612 H       
  55 H55           -3.9302    -3.1002    -0.6617 H       
  56 H56           -2.1508    -3.1272    -0.6970 H       
  57 H57            0.1548    -7.2512    -0.4054 H       
  58 H58           -0.1227    -9.1917     1.4789 H       
  59 H59           -1.8512    -9.2890     1.8925 H       
  60 H60           -1.3360    -9.3897     0.1917 H       
@<TRIPOS>BOND
   1    1    2 am
   2    1   26 1
   3    1    6 am
   4    2    3 am
   5    2   25 2
   6    3    4 1
   7    3   11 1
   8    4    5 1
   9    4    7 2
  10    5    6 1
  11    5   10 2
  12    6   27 2
  13    7    8 1
  14    7   32 1
  15    8    9 am
  16    8   17 2
  17    9   10 1
  18    9   30 1
  19   10   18 1
  20   11   12 ar
  21   11   16 ar
  22   12   13 ar
  23   12   38 1
  24   13   14 ar
  25   13   39 1
  26   14   15 ar
  27   14   34 1
  28   15   16 ar
  29   15   40 1
  30   16   41 1
  31   18   19 1
  32   18   42 1
  33   19   20 ar
  34   19   24 ar
  35   20   21 ar
  36   20   43 1
  37   21   22 ar
  38   21   44 1
  39   22   23 ar
  40   22   31 1
  41   23   24 ar
  42   23   45 1
  43   24   33 1
  44   26   28 1
  45   26   29 1
  46   26   46 1
  47   28   29 1
  48   28   47 1
  49   28   48 1
  50   29   49 1
  51   29   50 1
  52   30   51 1
  53   30   52 1
  54   30   53 1
  55   32   54 1
  56   32   55 1
  57   32   56 1
  58   34   35 am
  59   34   57 1
  60   35   36 1
  61   35   37 2
  62   36   58 1
  63   36   59 1
  64   36   60 1

#	End of record

