#	Name: ASD01816149
#	Creating user name:	WinNT
#	Creation time:	15. 06. 2019 19:34

#	Modifying user name:	WinNT
#	Modification time:	15. 06. 2019 19:34

#	Program:	/corina/corina34_cracker 3.40 0067  02.08.2006

@<TRIPOS>MOLECULE
ASD01816149
  60   65    0    0    0
SMALL
NO_CHARGES


@<TRIPOS>ATOM
   1 C1             0.0183     1.3622     0.0276 C.ar    
   2 C2             0.0315    -0.0231     0.0161 C.ar    
   3 C3             1.2250    -0.7147    -0.0022 C.ar    
   4 C4             2.4309    -0.0227    -0.0092 C.ar    
   5 C5             2.4141     1.3820     0.0020 C.ar    
   6 C6             1.2041     2.0679     0.0205 C.ar    
   7 N7             3.6319    -0.7106    -0.0265 N.pl3   
   8 C8             4.8261    -0.0968    -0.0335 C.2     
   9 C9             4.9346     1.2717    -0.0239 C.2     
  10 C10            3.7049     2.0964    -0.0057 C.2     
  11 C11            6.0356     2.2299    -0.0268 C.2     
  12 N12            5.4679     3.4553    -0.0118 N.am    
  13 N13            4.0752     3.3447     0.0006 N.2     
  14 O14            7.2289     1.9751    -0.0396 O.2     
  15 C15            3.5987    -2.1752    -0.0372 C.3     
  16 C16            3.5729    -2.6667    -1.4615 C.ar    
  17 N17            2.4202    -2.7580    -2.0960 N.ar    
  18 C18            2.3437    -3.1812    -3.3413 C.ar    
  19 C19            3.4928    -3.5510    -4.0364 C.ar    
  20 C20            4.7298    -3.4656    -3.3916 C.ar    
  21 C21            4.7589    -3.0097    -2.0850 C.ar    
  22 C22            6.1747     4.6646    -0.0089 C.ar    
  23 C23            5.9398     5.6069     0.9866 C.ar    
  24 C24            7.1156     4.9231    -0.9967 C.ar    
  25 C25            7.8110     6.1165    -0.9913 C.ar    
  26 C26            7.5718     7.0546    -0.0037 C.ar    
  27 C27            6.6400     6.7997     0.9856 C.ar    
  28 F28            5.0290     5.3577     1.9529 F       
  29 C29            3.4048    -4.0285    -5.4387 C.ar    
  30 C30            2.1674    -4.1103    -6.0719 C.ar    
  31 C31            2.0920    -4.5568    -7.3824 C.ar    
  32 C32            3.2497    -4.9208    -8.0596 C.ar    
  33 C33            4.4771    -4.8396    -7.4303 C.ar    
  34 C34            4.5610    -4.3906    -6.1272 C.ar    
  35 N35            0.8506    -4.6412    -8.0228 N.am    
  36 O36            1.7204    -3.9768    -9.9526 O.2     
  37 C37            0.7533    -4.3791    -9.3412 C.2     
  38 C38           -0.5574    -4.5858   -10.0558 C.3     
  39 H39           -0.9231     1.8915     0.0376 H       
  40 H40           -0.9016    -0.5669     0.0218 H       
  41 H41            1.2227    -1.7947    -0.0106 H       
  42 H42            1.1928     3.1478     0.0291 H       
  43 H43            5.7250    -0.6953    -0.0468 H       
  44 H44            4.4853    -2.5624     0.4648 H       
  45 H45            2.7059    -2.5221     0.4831 H       
  46 H46            1.3812    -3.2423    -3.8275 H       
  47 H47            5.6402    -3.7447    -3.9011 H       
  48 H48            5.6968    -2.9305    -1.5552 H       
  49 H49            7.3038     4.1915    -1.7685 H       
  50 H50            8.5430     6.3173    -1.7595 H       
  51 H51            8.1176     7.9865    -0.0023 H       
  52 H52            6.4555     7.5343     1.7554 H       
  53 H53            1.2690    -3.8273    -5.5437 H       
  54 H54            3.1897    -5.2684    -9.0804 H       
  55 H55            5.3739    -5.1243    -7.9605 H       
  56 H56            5.5222    -4.3281    -5.6386 H       
  57 H57            0.0602    -4.8883    -7.5177 H       
  58 H58           -1.3036    -4.9478    -9.3486 H       
  59 H59           -0.8909    -3.6405   -10.4838 H       
  60 H60           -0.4255    -5.3187   -10.8518 H       
@<TRIPOS>BOND
   1    1    2 ar
   2    1    6 ar
   3    1   39 1
   4    2    3 ar
   5    2   40 1
   6    3    4 ar
   7    3   41 1
   8    4    5 ar
   9    4    7 1
  10    5    6 ar
  11    5   10 1
  12    6   42 1
  13    7    8 1
  14    7   15 1
  15    8    9 2
  16    8   43 1
  17    9   10 1
  18    9   11 1
  19   10   13 2
  20   11   12 am
  21   11   14 2
  22   12   13 1
  23   12   22 1
  24   15   16 1
  25   15   44 1
  26   15   45 1
  27   16   17 ar
  28   16   21 ar
  29   17   18 ar
  30   18   19 ar
  31   18   46 1
  32   19   20 ar
  33   19   29 1
  34   20   21 ar
  35   20   47 1
  36   21   48 1
  37   22   23 ar
  38   22   24 ar
  39   23   28 1
  40   23   27 ar
  41   24   25 ar
  42   24   49 1
  43   25   26 ar
  44   25   50 1
  45   26   27 ar
  46   26   51 1
  47   27   52 1
  48   29   30 ar
  49   29   34 ar
  50   30   31 ar
  51   30   53 1
  52   31   32 ar
  53   31   35 1
  54   32   33 ar
  55   32   54 1
  56   33   34 ar
  57   33   55 1
  58   34   56 1
  59   35   37 am
  60   35   57 1
  61   36   37 2
  62   37   38 1
  63   38   58 1
  64   38   59 1
  65   38   60 1

#	End of record

