#	Name: ASD03330841
#	Creating user name:	WinNT
#	Creation time:	15. 06. 2019 20:38

#	Modifying user name:	WinNT
#	Modification time:	15. 06. 2019 20:38

#	Program:	/corina/corina34_cracker 3.40 0067  02.08.2006

@<TRIPOS>MOLECULE
ASD03330841
  63   65    0    0    0
SMALL
NO_CHARGES


@<TRIPOS>ATOM
   1 C1            -0.3083     2.9629     1.1113 C.2     
   2 N2            -0.5360     1.7890     1.7581 N.pl3   
   3 C3             1.0403     3.0847     0.9657 C.2     
   4 N4             1.6139     1.9865     1.5045 N.2     
   5 C5             0.6751     1.2007     1.9773 C.2     
   6 C6             0.8937    -0.1049     2.6375 C.ar    
   7 C7             1.7325    -1.0536     2.0520 C.ar    
   8 C8             1.7474     4.2125     0.3337 C.2     
   9 O9             1.1168     5.1496    -0.1174 O.2     
  10 C10            3.7958     5.3270    -0.3728 C.3     
  11 N11            3.0928     4.2057     0.2556 N.am    
  12 C12            1.9329    -2.2695     2.6717 C.ar    
  13 C13            1.3030    -2.5494     3.8737 C.ar    
  14 C14            0.4687    -1.6103     4.4596 C.ar    
  15 C15            0.2662    -0.3895     3.8511 C.ar    
  16 C16           -1.8515     1.2767     2.1513 C.3     
  17 C17           -2.8142     1.4022     0.9662 C.3     
  18 C18           -3.4721     2.7782     0.9798 C.3     
  19 N19           -2.5536     3.7965     1.4929 N.3     
  20 C20           -1.3657     3.9253     0.6358 C.3     
  21 C21           -3.2339     5.0893     1.6473 C.3     
  22 C22            3.8532     5.1093    -1.8861 C.3     
  23 C23            2.4308     5.0193    -2.4427 C.3     
  24 C24            4.5845     6.2819    -2.5427 C.3     
  25 C25            4.6015     3.8090    -2.1863 C.3     
  26 C26            5.1968     5.4124     0.1759 C.2     
  27 O27            5.7208     4.4299     0.6565 O.2     
  28 N28            5.8674     6.5807     0.1325 N.am    
  29 C29            7.1822     6.6946     0.7684 C.3     
  30 F30            1.5023    -3.7420     4.4765 F       
  31 C31            2.4178    -0.7507     0.7445 C.3     
  32 H32            3.2647     6.2545    -0.1590 H       
  33 H33            3.5958     3.4583     0.6154 H       
  34 H34            2.5817    -3.0048     2.2191 H       
  35 H35           -0.0202    -1.8334     5.3964 H       
  36 H36           -0.3838     0.3417     4.3086 H       
  37 H37           -1.7633     0.2293     2.4396 H       
  38 H38           -2.2317     1.8564     2.9924 H       
  39 H39           -2.2618     1.2737     0.0354 H       
  40 H40           -3.5823     0.6324     1.0401 H       
  41 H41           -3.7687     3.0429    -0.0352 H       
  42 H42           -4.3586     2.7445     1.6131 H       
  43 H43           -0.9834     4.9444     0.6934 H       
  44 H44           -1.6330     3.6928    -0.3950 H       
  45 H45           -4.0630     4.9823     2.3467 H       
  46 H46           -2.5289     5.8274     2.0298 H       
  47 H47           -3.6145     5.4175     0.6801 H       
  48 H48            1.8977     5.9456    -2.2288 H       
  49 H49            2.4717     4.8642    -3.5209 H       
  50 H50            1.9098     4.1839    -1.9750 H       
  51 H51            5.5788     6.3798    -2.1070 H       
  52 H52            4.6734     6.1007    -3.6138 H       
  53 H53            4.0223     7.2005    -2.3750 H       
  54 H54            4.0805     2.9736    -1.7186 H       
  55 H55            4.6424     3.6539    -3.2645 H       
  56 H56            5.6148     3.8731    -1.7898 H       
  57 H57            5.4794     7.3461    -0.3198 H       
  58 H58            7.8686     5.9800     0.3143 H       
  59 H59            7.5662     7.7054     0.6304 H       
  60 H60            7.0901     6.4833     1.8338 H       
  61 H61            3.3506    -0.2209     0.9374 H       
  62 H62            2.6310    -1.6830     0.2215 H       
  63 H63            1.7676    -0.1293     0.1288 H       
@<TRIPOS>BOND
   1    1    2 1
   2    1    3 2
   3    1   20 1
   4    2   16 1
   5    2    5 1
   6    3    4 1
   7    3    8 1
   8    4    5 2
   9    5    6 1
  10    6    7 ar
  11    6   15 ar
  12    7   12 ar
  13    7   31 1
  14    8    9 2
  15    8   11 am
  16   10   11 1
  17   10   22 1
  18   10   26 1
  19   10   32 1
  20   11   33 1
  21   12   13 ar
  22   12   34 1
  23   13   14 ar
  24   13   30 1
  25   14   15 ar
  26   14   35 1
  27   15   36 1
  28   16   17 1
  29   16   37 1
  30   16   38 1
  31   17   18 1
  32   17   39 1
  33   17   40 1
  34   18   19 1
  35   18   41 1
  36   18   42 1
  37   19   20 1
  38   19   21 1
  39   20   43 1
  40   20   44 1
  41   21   45 1
  42   21   46 1
  43   21   47 1
  44   22   23 1
  45   22   24 1
  46   22   25 1
  47   23   48 1
  48   23   49 1
  49   23   50 1
  50   24   51 1
  51   24   52 1
  52   24   53 1
  53   25   54 1
  54   25   55 1
  55   25   56 1
  56   26   27 2
  57   26   28 am
  58   28   29 1
  59   28   57 1
  60   29   58 1
  61   29   59 1
  62   29   60 1
  63   31   61 1
  64   31   62 1
  65   31   63 1

#	End of record

