#	Name: ASD01910491
#	Creating user name:	WinNT
#	Creation time:	15. 06. 2019 19:55

#	Modifying user name:	WinNT
#	Modification time:	15. 06. 2019 19:55

#	Program:	/corina/corina34_cracker 3.40 0067  02.08.2006

@<TRIPOS>MOLECULE
ASD01910491
  44   47    0    0    0
SMALL
NO_CHARGES


@<TRIPOS>ATOM
   1 C1            -0.8524     1.9324     1.0574 C.ar    
   2 C2            -0.8690     0.4953     0.6909 C.2     
   3 N3            -1.8827    -0.3751     0.9004 N.2     
   4 C4            -1.4662    -1.5216     0.4234 C.2     
   5 O5            -0.2337    -1.3246    -0.0551 O.3     
   6 N6             0.0919    -0.1665     0.0995 N.2     
   7 C7            -2.2324    -2.8192     0.4159 C.3     
   8 C8            -2.4165    -3.2954    -1.0268 C.3     
   9 C9            -3.2228    -4.5961    -1.0375 C.3     
  10 C10           -2.4550    -5.6746    -0.2667 C.3     
  11 N11           -2.1470    -5.1666     1.0771 N.am    
  12 C12           -1.4533    -3.8776     1.2032 C.3     
  13 C13           -2.4942    -5.8697     2.1732 C.2     
  14 C14           -3.2648    -7.1223     2.0338 C.ar    
  15 O15           -2.1734    -5.4730     3.2767 O.2     
  16 C16            0.2701     2.7134     0.7779 C.ar    
  17 C17            0.2796     4.0524     1.1214 C.ar    
  18 C18           -0.8222     4.6174     1.7413 C.ar    
  19 C19           -1.9384     3.8443     2.0206 C.ar    
  20 C20           -1.9599     2.5089     1.6768 C.ar    
  21 F21            1.3452     2.1618     0.1735 F       
  22 F22           -0.8091     5.9264     2.0754 F       
  23 C23           -2.8383    -8.1118     1.1461 C.ar    
  24 C24           -3.5604    -9.2796     1.0189 C.ar    
  25 C25           -4.7087    -9.4730     1.7700 C.ar    
  26 C26           -5.1387    -8.4926     2.6546 C.ar    
  27 C27           -4.4192    -7.3231     2.7939 C.ar    
  28 F28           -5.4125   -10.6190     1.6410 F       
  29 F29           -6.2593    -8.6864     3.3840 F       
  30 H30           -3.2086    -2.6680     0.8765 H       
  31 H31           -2.9492    -2.5332    -1.5956 H       
  32 H32           -1.4402    -3.4696    -1.4791 H       
  33 H33           -4.1898    -4.4286    -0.5631 H       
  34 H34           -3.3736    -4.9222    -2.0666 H       
  35 H35           -3.0677    -6.5724    -0.1864 H       
  36 H36           -1.5280    -5.9079    -0.7905 H       
  37 H37           -0.4446    -3.9644     0.7993 H       
  38 H38           -1.4051    -3.5898     2.2534 H       
  39 H39            1.1473     4.6584     0.9063 H       
  40 H40           -2.7948     4.2898     2.5049 H       
  41 H41           -2.8306     1.9084     1.8953 H       
  42 H42           -1.9439    -7.9627     0.5593 H       
  43 H43           -3.2305   -10.0451     0.3322 H       
  44 H44           -4.7534    -6.5607     3.4821 H       
@<TRIPOS>BOND
   1    1    2 1
   2    1   16 ar
   3    1   20 ar
   4    2    3 1
   5    2    6 2
   6    3    4 2
   7    4    5 1
   8    4    7 1
   9    5    6 1
  10    7    8 1
  11    7   12 1
  12    7   30 1
  13    8    9 1
  14    8   31 1
  15    8   32 1
  16    9   10 1
  17    9   33 1
  18    9   34 1
  19   10   11 1
  20   10   35 1
  21   10   36 1
  22   11   12 1
  23   11   13 am
  24   12   37 1
  25   12   38 1
  26   13   14 1
  27   13   15 2
  28   14   23 ar
  29   14   27 ar
  30   16   17 ar
  31   16   21 1
  32   17   18 ar
  33   17   39 1
  34   18   19 ar
  35   18   22 1
  36   19   20 ar
  37   19   40 1
  38   20   41 1
  39   23   24 ar
  40   23   42 1
  41   24   25 ar
  42   24   43 1
  43   25   26 ar
  44   25   28 1
  45   26   27 ar
  46   26   29 1
  47   27   44 1

#	End of record

