#	Name: ASD04590269
#	Creating user name:	WinNT
#	Creation time:	15. 06. 2019 20:50

#	Modifying user name:	WinNT
#	Modification time:	15. 06. 2019 20:50

#	Program:	/corina/corina34_cracker 3.40 0067  02.08.2006

@<TRIPOS>MOLECULE
ASD04590269
  40   43    0    0    0
SMALL
NO_CHARGES


@<TRIPOS>ATOM
   1 C1            -0.0167     1.3832     0.0096 C.ar    
   2 C2             0.0021    -0.0041     0.0020 C.ar    
   3 C3             1.1969    -0.6869    -0.0130 C.ar    
   4 C4             2.4020     0.0223    -0.0207 C.ar    
   5 C5             2.3769     1.4283    -0.0129 C.ar    
   6 C6             1.1624     2.0986     0.0022 C.ar    
   7 N7             3.7040    -0.3551    -0.0359 N.2     
   8 C8             4.4709     0.7083    -0.0379 C.2     
   9 N9             3.6969     1.8375    -0.0241 N.pl3   
  10 C10            5.9482     0.6906    -0.0525 C.2     
  11 C11            6.7657    -0.4631    -0.0669 C.2     
  12 C12            8.0579    -0.0539    -0.0773 C.2     
  13 N13            8.0646     1.3050    -0.0698 N.pl3   
  14 N14            6.7360     1.7480    -0.0600 N.2     
  15 N15            6.3188    -1.7944    -0.0696 N.am    
  16 C16            7.2108    -2.8046    -0.0840 C.2     
  17 C17            6.7414    -4.2031    -0.0868 C.ar    
  18 O18            8.4027    -2.5633    -0.0947 O.2     
  19 C19            5.3730    -4.4849    -0.0745 C.ar    
  20 C20            7.6653    -5.2566    -0.1076 C.ar    
  21 C21            7.2127    -6.5677    -0.1105 C.ar    
  22 C22            5.8577    -6.8321    -0.0934 C.ar    
  23 C23            4.9411    -5.7934    -0.0776 C.ar    
  24 O24            8.9964    -4.9953    -0.1253 O.3     
  25 C25            9.8781    -6.1197    -0.1460 C.3     
  26 H26           -0.9614     1.9066     0.0169 H       
  27 H27           -0.9283    -0.5525     0.0083 H       
  28 H28            1.2037    -1.7669    -0.0185 H       
  29 H29            1.1403     3.1784     0.0082 H       
  30 H30            4.0155     2.7537    -0.0226 H       
  31 H31            8.9276    -0.6941    -0.0890 H       
  32 H32            8.8529     1.8702    -0.0743 H       
  33 H33            5.3681    -1.9869    -0.0610 H       
  34 H34            4.6549    -3.6784    -0.0622 H       
  35 H35            7.9210    -7.3828    -0.1265 H       
  36 H36            5.5103    -7.8547    -0.0961 H       
  37 H37            3.8831    -6.0102    -0.0643 H       
  38 H38            9.7110    -6.7289     0.7423 H       
  39 H39            9.6849    -6.7166    -1.0374 H       
  40 H40           10.9108    -5.7714    -0.1587 H       
@<TRIPOS>BOND
   1    1    2 ar
   2    1    6 ar
   3    1   26 1
   4    2    3 ar
   5    2   27 1
   6    3    4 ar
   7    3   28 1
   8    4    5 ar
   9    4    7 1
  10    5    6 ar
  11    5    9 1
  12    6   29 1
  13    7    8 2
  14    8    9 1
  15    8   10 1
  16    9   30 1
  17   10   11 1
  18   10   14 2
  19   11   12 2
  20   11   15 1
  21   12   13 1
  22   12   31 1
  23   13   14 1
  24   13   32 1
  25   15   16 am
  26   15   33 1
  27   16   17 1
  28   16   18 2
  29   17   19 ar
  30   17   20 ar
  31   19   23 ar
  32   19   34 1
  33   20   21 ar
  34   20   24 1
  35   21   22 ar
  36   21   35 1
  37   22   23 ar
  38   22   36 1
  39   23   37 1
  40   24   25 1
  41   25   38 1
  42   25   39 1
  43   25   40 1

#	End of record

