#	Name: ASD00844372
#	Creating user name:	WinNT
#	Creation time:	15. 06. 2019 18:50

#	Modifying user name:	WinNT
#	Modification time:	15. 06. 2019 18:50

#	Program:	/corina/corina34_cracker 3.40 0067  02.08.2006

@<TRIPOS>MOLECULE
ASD00844372
 101  106    0    0    0
SMALL
NO_CHARGES


@<TRIPOS>ATOM
   1 F1            -0.0994    -3.1558     4.7109 F       
   2 C2            -0.0142     1.3803     0.0276 C.ar    
   3 C3             0.0033    -0.0066     0.0121 C.ar    
   4 C4             1.2149    -0.6826    -0.0059 C.ar    
   5 C5             2.4001     0.0266    -0.0082 C.ar    
   6 C6             2.3800     1.4092     0.0077 C.ar    
   7 C7             1.1742     2.0851     0.0252 C.ar    
   8 C8             1.2376    -2.1893    -0.0222 C.3     
   9 C9             0.4952    -2.7178    -1.2311 C.2     
  10 N10            2.6177    -2.6807    -0.0124 N.am    
  11 C11            3.4634    -2.3342    -1.0029 C.2     
  12 N12            4.7590    -2.7005    -0.9417 N.am    
  13 O13            3.0576    -1.6913    -1.9517 O.2     
  14 C14            5.2905    -3.3763     0.2497 C.3     
  15 C15            6.5169    -2.6053     0.7481 C.3     
  16 C16            7.5240    -2.4627    -0.3953 C.3     
  17 C17            6.8890    -1.6715    -1.5411 C.3     
  18 C18            5.6654    -2.4369    -2.0676 C.3     
  19 C19            8.7653    -1.7233     0.1081 C.3     
  20 C20            9.4029    -2.5145     1.2535 C.3     
  21 C21           10.6772    -1.8018     1.7120 C.3     
  22 N22           11.6132    -1.6967     0.5853 N.3     
  23 C23           11.0408    -0.9009    -0.5080 C.3     
  24 C24            9.7774    -1.5867    -1.0328 C.3     
  25 C25           12.9018    -1.1424     1.0214 C.3     
  26 O26            0.7754    -2.5155    -2.3937 O.2     
  27 N27           -0.5320    -3.4537    -0.7742 N.am    
  28 C28            0.4669    -2.7433     1.1540 C.ar    
  29 C29           -0.5771    -3.4890     0.6211 C.ar    
  30 C30            0.6298    -2.6298     2.5163 C.ar    
  31 C31           -0.2551    -3.2648     3.3734 C.ar    
  32 C32           -1.3003    -4.0114     2.8535 C.ar    
  33 C33           -1.4636    -4.1251     1.4872 C.ar    
  34 Cl34          -2.4098    -4.8075     3.9253 Cl      
  35 C35           -0.9839    -5.8421    -2.0648 C.ar    
  36 C36            0.1953    -5.9962    -2.7796 C.ar    
  37 C37           -1.6570    -6.9527    -1.5922 C.ar    
  38 C38           -1.1577    -8.2188    -1.8297 C.ar    
  39 C39            0.0215    -8.3782    -2.5443 C.ar    
  40 C40            0.6982    -7.2658    -3.0197 C.ar    
  41 O41            0.5120    -9.6238    -2.7780 O.3     
  42 O42            0.8564    -4.9037    -3.2444 O.3     
  43 C43           -0.2377   -10.7241    -2.2590 C.3     
  44 C44            2.0639    -5.1371    -3.9722 C.3     
  45 C45            2.6614    -3.7988    -4.4113 C.3     
  46 C46           13.9240    -1.2782    -0.1089 C.3     
  47 C47           15.2661    -0.7008     0.3453 C.3     
  48 S48           -1.6199    -4.2287    -1.7530 S.o2    
  49 O49           -2.7999    -4.4048    -0.9811 O.2     
  50 O50           -1.6003    -3.5424    -2.9971 O.2     
  51 O51           -1.1642    -0.7021     0.0149 O.3     
  52 C52           -2.3731     0.0596     0.0342 C.3     
  53 C53           -3.5736    -0.8889     0.0345 C.3     
  54 F54           -3.5410    -1.6827    -1.1170 F       
  55 F55           -3.5205    -1.7080     1.1673 F       
  56 H56           -0.9560     1.9089     0.0370 H       
  57 H57            3.3434    -0.4991    -0.0221 H       
  58 H58            3.3078     1.9619     0.0066 H       
  59 H59            1.1611     3.1650     0.0376 H       
  60 H60            2.9228    -3.2553     0.7070 H       
  61 H61            4.5289    -3.3950     1.0294 H       
  62 H62            5.5790    -4.3957    -0.0066 H       
  63 H63            6.2110    -1.6162     1.0890 H       
  64 H64            6.9776    -3.1486     1.5731 H       
  65 H65            7.8107    -3.4519    -0.7522 H       
  66 H66            6.5796    -0.6912    -1.1786 H       
  67 H67            7.6145    -1.5502    -2.3454 H       
  68 H68            5.9872    -3.3785    -2.5128 H       
  69 H69            5.1512    -1.8336    -2.8157 H       
  70 H70            8.4802    -0.7332     0.4638 H       
  71 H71            8.7021    -2.5784     2.0859 H       
  72 H72            9.6514    -3.5181     0.9083 H       
  73 H73           10.4261    -0.8033     2.0698 H       
  74 H74           11.1413    -2.3702     2.5179 H       
  75 H75           10.7880     0.0934    -0.1398 H       
  76 H76           11.7691    -0.8150    -1.3145 H       
  77 H77           10.0317    -2.5757    -1.4139 H       
  78 H78            9.3441    -0.9878    -1.8338 H       
  79 H79           12.7774    -0.0894     1.2742 H       
  80 H80           13.2540    -1.6872     1.8973 H       
  81 H81            1.4462    -2.0471     2.9165 H       
  82 H82           -2.2805    -4.7087     1.0890 H       
  83 H83           -2.5747    -6.8308    -1.0360 H       
  84 H84           -1.6851    -9.0852    -1.4588 H       
  85 H85            1.6157    -7.3878    -3.5762 H       
  86 H86           -0.3090   -10.6361    -1.1749 H       
  87 H87           -1.2386   -10.7177    -2.6907 H       
  88 H88            0.2626   -11.6579    -2.5155 H       
  89 H89            2.7763    -5.6616    -3.3355 H       
  90 H90            1.8467    -5.7439    -4.8512 H       
  91 H91            3.5824    -3.9768    -4.9665 H       
  92 H92            1.9490    -3.2742    -5.0480 H       
  93 H93            2.8786    -3.1919    -3.5323 H       
  94 H94           14.0484    -2.3311    -0.3617 H       
  95 H95           13.5718    -0.7333    -0.9848 H       
  96 H96           15.9944    -0.7976    -0.4599 H       
  97 H97           15.1418     0.3522     0.5981 H       
  98 H98           15.6184    -1.2457     1.2212 H       
  99 H99           -2.3985     0.6782     0.9313 H       
 100 H100          -2.4145     0.6979    -0.8485 H       
 101 H101          -4.4957    -0.3078     0.0492 H       
@<TRIPOS>BOND
   1    1   31 1
   2    2    3 ar
   3    2    7 ar
   4    2   56 1
   5    3    4 ar
   6    3   51 1
   7    4    5 ar
   8    4    8 1
   9    5    6 ar
  10    5   57 1
  11    6    7 ar
  12    6   58 1
  13    7   59 1
  14    8    9 1
  15    8   10 1
  16    8   28 1
  17    9   26 2
  18    9   27 am
  19   10   11 am
  20   10   60 1
  21   11   12 am
  22   11   13 2
  23   12   14 1
  24   12   18 1
  25   14   15 1
  26   14   61 1
  27   14   62 1
  28   15   16 1
  29   15   63 1
  30   15   64 1
  31   16   17 1
  32   16   19 1
  33   16   65 1
  34   17   18 1
  35   17   66 1
  36   17   67 1
  37   18   68 1
  38   18   69 1
  39   19   20 1
  40   19   24 1
  41   19   70 1
  42   20   21 1
  43   20   71 1
  44   20   72 1
  45   21   22 1
  46   21   73 1
  47   21   74 1
  48   22   23 1
  49   22   25 1
  50   23   24 1
  51   23   75 1
  52   23   76 1
  53   24   77 1
  54   24   78 1
  55   25   46 1
  56   25   79 1
  57   25   80 1
  58   27   48 am
  59   27   29 1
  60   28   29 ar
  61   28   30 ar
  62   29   33 ar
  63   30   31 ar
  64   30   81 1
  65   31   32 ar
  66   32   33 ar
  67   32   34 1
  68   33   82 1
  69   35   36 ar
  70   35   37 ar
  71   35   48 1
  72   36   42 1
  73   36   40 ar
  74   37   38 ar
  75   37   83 1
  76   38   39 ar
  77   38   84 1
  78   39   40 ar
  79   39   41 1
  80   40   85 1
  81   41   43 1
  82   42   44 1
  83   43   86 1
  84   43   87 1
  85   43   88 1
  86   44   45 1
  87   44   89 1
  88   44   90 1
  89   45   91 1
  90   45   92 1
  91   45   93 1
  92   46   47 1
  93   46   94 1
  94   46   95 1
  95   47   96 1
  96   47   97 1
  97   47   98 1
  98   48   49 2
  99   48   50 2
 100   51   52 1
 101   52   53 1
 102   52   99 1
 103   52  100 1
 104   53   54 1
 105   53   55 1
 106   53  101 1

#	End of record

