#	Name: ASD05490082
#	Creating user name:	WinNT
#	Creation time:	15. 06. 2019 21:01

#	Modifying user name:	WinNT
#	Modification time:	15. 06. 2019 21:01

#	Program:	/corina/corina34_cracker 3.40 0067  02.08.2006

@<TRIPOS>MOLECULE
ASD05490082
  67   71    0    0    0
SMALL
NO_CHARGES


@<TRIPOS>ATOM
   1 N1            -0.0178     1.4608     0.0101 N.pl3   
   2 O2             4.5582     2.8949    -0.0261 O.3     
   3 N3             2.7941     4.3826    -0.0015 N.ar    
   4 C4             1.4952     4.6638     0.0118 C.ar    
   5 C5             3.2233     3.1292    -0.0123 C.ar    
   6 N6             2.3949     2.0994    -0.0093 N.ar    
   7 C7             1.0795     2.2895     0.0040 C.ar    
   8 C8             0.5781     3.6006     0.0150 C.ar    
   9 N9             1.0558     5.9772     0.0226 N.pl3   
  10 C10           -1.1306     2.2546     0.0190 C.2     
  11 N11           -0.7773     3.5129     0.0270 N.2     
  12 C12            5.4173     4.0368    -0.0280 C.3     
  13 C13            6.8766     3.5771    -0.0442 C.3     
  14 O14            7.1483     2.8975    -1.2715 O.3     
  15 C15            8.4917     2.4246    -1.3889 C.3     
  16 C16            0.0021    -0.0041     0.0020 C.3     
  17 C17            0.0225    -0.5140     1.4200 C.ar    
  18 C18           -1.1674    -0.7635     2.0797 C.ar    
  19 C19           -1.1546    -1.2305     3.3784 C.ar    
  20 C20            0.0599    -1.4507     4.0249 C.ar    
  21 C21            1.2555    -1.1977     3.3555 C.ar    
  22 C22            1.2310    -0.7362     2.0550 C.ar    
  23 C23            0.0799    -1.9524     5.4213 C.ar    
  24 C24            1.2904    -2.1769     6.0798 C.ar    
  25 C25           -1.1087    -2.2031     6.1032 C.ar    
  26 N26           -1.0874    -2.6450     7.3414 N.ar    
  27 C27            0.0430    -2.8707     7.9947 C.ar    
  28 C28            1.2600    -2.6453     7.3856 C.ar    
  29 C29           -0.0429    -3.3659     9.4172 C.3     
  30 C30            1.2994    -3.9588     9.8456 C.3     
  31 N31            2.3611    -2.9879     9.5364 N.3     
  32 C32            2.5662    -2.9007     8.0883 C.3     
  33 C33            3.6104    -3.3367    10.2259 C.3     
  34 C34            4.7480    -2.4632     9.6932 C.3     
  35 O35           -2.4073     1.8048     0.0270 O.3     
  36 C36           -3.4422     2.7900     0.0462 C.3     
  37 H37            1.6985     6.7037     0.0206 H       
  38 H38            0.1053     6.1706     0.0323 H       
  39 H39            5.2168     4.6408    -0.9129 H       
  40 H40            5.2335     4.6312     0.8670 H       
  41 H41            7.5315     4.4439     0.0439 H       
  42 H42            7.0539     2.9012     0.7924 H       
  43 H43            9.1802     3.2675    -1.3287 H       
  44 H44            8.7025     1.7248    -0.5803 H       
  45 H45            8.6170     1.9208    -2.3473 H       
  46 H46           -0.8878    -0.3767    -0.5053 H       
  47 H47            0.8920    -0.3525    -0.5222 H       
  48 H48           -2.1082    -0.5921     1.5778 H       
  49 H49           -2.0842    -1.4247     3.8927 H       
  50 H50            2.1996    -1.3663     3.8521 H       
  51 H51            2.1571    -0.5401     1.5352 H       
  52 H52            2.2310    -1.9902     5.5830 H       
  53 H53           -2.0549    -2.0328     5.6112 H       
  54 H54           -0.2977    -2.5348    10.0748 H       
  55 H55           -0.8156    -4.1313     9.4878 H       
  56 H56            1.2862    -4.1578    10.9172 H       
  57 H57            1.4807    -4.8853     9.3008 H       
  58 H58            2.9898    -3.8379     7.7274 H       
  59 H59            3.2593    -2.0881     7.8709 H       
  60 H60            3.4938    -3.1683    11.2965 H       
  61 H61            3.8436    -4.3862    10.0465 H       
  62 H62            4.8646    -2.6316     8.6226 H       
  63 H63            4.5147    -1.4137     9.8726 H       
  64 H64            5.6750    -2.7220    10.2048 H       
  65 H65           -3.3425     3.4042     0.9411 H       
  66 H66           -3.3595     3.4211    -0.8387 H       
  67 H67           -4.4139     2.2962     0.0508 H       
@<TRIPOS>BOND
   1    1   16 1
   2    1    7 1
   3    1   10 1
   4    2   12 1
   5    2    5 1
   6    3    4 ar
   7    3    5 ar
   8    4    9 1
   9    4    8 ar
  10    5    6 ar
  11    6    7 ar
  12    7    8 ar
  13    8   11 1
  14    9   37 1
  15    9   38 1
  16   10   11 2
  17   10   35 1
  18   12   13 1
  19   12   39 1
  20   12   40 1
  21   13   14 1
  22   13   41 1
  23   13   42 1
  24   14   15 1
  25   15   43 1
  26   15   44 1
  27   15   45 1
  28   16   17 1
  29   16   46 1
  30   16   47 1
  31   17   18 ar
  32   17   22 ar
  33   18   19 ar
  34   18   48 1
  35   19   20 ar
  36   19   49 1
  37   20   21 ar
  38   20   23 1
  39   21   22 ar
  40   21   50 1
  41   22   51 1
  42   23   24 ar
  43   23   25 ar
  44   24   28 ar
  45   24   52 1
  46   25   26 ar
  47   25   53 1
  48   26   27 ar
  49   27   28 ar
  50   27   29 1
  51   28   32 1
  52   29   30 1
  53   29   54 1
  54   29   55 1
  55   30   31 1
  56   30   56 1
  57   30   57 1
  58   31   32 1
  59   31   33 1
  60   32   58 1
  61   32   59 1
  62   33   34 1
  63   33   60 1
  64   33   61 1
  65   34   62 1
  66   34   63 1
  67   34   64 1
  68   35   36 1
  69   36   65 1
  70   36   66 1
  71   36   67 1

#	End of record

