#	Name: ASD01208513
#	Creating user name:	WinNT
#	Creation time:	15. 06. 2019 19:09

#	Modifying user name:	WinNT
#	Modification time:	15. 06. 2019 19:09

#	Program:	/corina/corina34_cracker 3.40 0067  02.08.2006

@<TRIPOS>MOLECULE
ASD01208513
  16   16    0    0    0
SMALL
NO_CHARGES


@<TRIPOS>ATOM
   1 C1            -0.0168     1.3905     0.0097 C.ar    
   2 C2             0.0021    -0.0041     0.0020 C.ar    
   3 N3             1.1285     2.0683     0.0024 N.ar    
   4 N4             1.1559    -0.6466    -0.0125 N.ar    
   5 C5             2.2915     0.0312    -0.0197 C.ar    
   6 C6             2.2754     1.4208    -0.0120 C.ar    
   7 C7            -1.3073     2.1148     0.0197 C.2     
   8 O8            -2.3515     1.4949     0.0213 O.2     
   9 O9            -1.3236     3.4616     0.0271 O.3     
  10 Cl10           3.8060    -0.8171    -0.0381 Cl      
  11 C11           -2.6252     4.1050     0.0368 C.3     
  12 H12           -0.9252    -0.5576     0.0083 H       
  13 H13            3.2049     1.9707    -0.0180 H       
  14 H14           -3.1829     3.8102    -0.8521 H       
  15 H15           -3.1744     3.8005     0.9278 H       
  16 H16           -2.4955     5.1872     0.0421 H       
@<TRIPOS>BOND
   1    1    2 ar
   2    1    3 ar
   3    1    7 1
   4    2    4 ar
   5    2   12 1
   6    3    6 ar
   7    4    5 ar
   8    5    6 ar
   9    5   10 1
  10    6   13 1
  11    7    8 2
  12    7    9 1
  13    9   11 1
  14   11   14 1
  15   11   15 1
  16   11   16 1

#	End of record

