#	Name: ASD01883592
#	Creating user name:	WinNT
#	Creation time:	15. 06. 2019 19:46

#	Modifying user name:	WinNT
#	Modification time:	15. 06. 2019 19:46

#	Program:	/corina/corina34_cracker 3.40 0067  02.08.2006

@<TRIPOS>MOLECULE
ASD01883592
  45   48    0    0    0
SMALL
NO_CHARGES


@<TRIPOS>ATOM
   1 C1            -0.0489     1.3599    -0.2850 C.2     
   2 C2            -0.0394     0.0108    -0.3217 C.2     
   3 N3             1.1240    -0.6840    -0.2110 N.am    
   4 C4             2.3021    -0.0510    -0.0610 C.2     
   5 C5             2.3483     1.3500    -0.0161 C.2     
   6 C6             1.1655     2.0668    -0.1293 C.2     
   7 O7             3.3331    -0.6979     0.0367 O.2     
   8 Cl8            3.8631     2.1755     0.1782 Cl      
   9 C9             1.1749     3.5468    -0.0864 C.ar    
  10 C10            0.7950     4.2813    -1.2103 C.ar    
  11 C11            0.8050     5.6597    -1.1667 C.ar    
  12 C12            1.1932     6.3167    -0.0047 C.ar    
  13 C13            1.5719     5.5876     1.1154 C.ar    
  14 C14            1.5584     4.2100     1.0801 C.ar    
  15 O15            1.2026     7.6742     0.0353 O.3     
  16 C16            0.0468     8.3109     0.3599 C.ar    
  17 C17           -1.1223     7.5869     0.5713 C.ar    
  18 C18           -2.2760     8.2805     0.9002 C.ar    
  19 C19           -2.2282     9.6577     1.0068 C.ar    
  20 N20           -1.1032    10.3143     0.8000 N.ar    
  21 C21            0.0169     9.6921     0.4910 C.ar    
  22 C22            1.0946    -2.1481    -0.2552 C.3     
  23 C23            1.2446    -2.6176    -1.7036 C.3     
  24 Cl24           0.3331     6.5751    -2.5642 Cl      
  25 C25            1.2752    10.4900     0.2648 C.3     
  26 C26            1.3558    -4.1235    -1.9502 C.3     
  27 C27            0.0721    -3.3798    -2.3243 C.3     
  28 H28           -0.9807     1.8978    -0.3787 H       
  29 H29           -0.9697    -0.5248    -0.4404 H       
  30 H30            0.4937     3.7710    -2.1132 H       
  31 H31            1.8729     6.1011     2.0166 H       
  32 H32            1.8527     3.6442     1.9516 H       
  33 H33           -1.1306     6.5107     0.4809 H       
  34 H34           -3.2017     7.7512     1.0710 H       
  35 H35           -3.1242    10.2037     1.2625 H       
  36 H36            1.9144    -2.5462     0.3426 H       
  37 H37            0.1459    -2.5047     0.1459 H       
  38 H38            1.8174    -1.9574    -2.3549 H       
  39 H39            1.8092    10.6017     1.2085 H       
  40 H40            1.9105     9.9710    -0.4529 H       
  41 H41            1.0161    11.4745    -0.1248 H       
  42 H42            2.0013    -4.4540    -2.7639 H       
  43 H43            1.3220    -4.7797    -1.0805 H       
  44 H44           -0.8062    -3.5467    -1.7007 H       
  45 H45           -0.1268    -3.2209    -3.3841 H       
@<TRIPOS>BOND
   1    1    2 2
   2    1    6 1
   3    1   28 1
   4    2    3 1
   5    2   29 1
   6    3    4 am
   7    3   22 1
   8    4    5 1
   9    4    7 2
  10    5    6 2
  11    5    8 1
  12    6    9 1
  13    9   10 ar
  14    9   14 ar
  15   10   11 ar
  16   10   30 1
  17   11   12 ar
  18   11   24 1
  19   12   13 ar
  20   12   15 1
  21   13   14 ar
  22   13   31 1
  23   14   32 1
  24   15   16 1
  25   16   17 ar
  26   16   21 ar
  27   17   18 ar
  28   17   33 1
  29   18   19 ar
  30   18   34 1
  31   19   20 ar
  32   19   35 1
  33   20   21 ar
  34   21   25 1
  35   22   23 1
  36   22   36 1
  37   22   37 1
  38   23   26 1
  39   23   27 1
  40   23   38 1
  41   25   39 1
  42   25   40 1
  43   25   41 1
  44   26   27 1
  45   26   42 1
  46   26   43 1
  47   27   44 1
  48   27   45 1

#	End of record

