#	Name: ASD03320088
#	Creating user name:	WinNT
#	Creation time:	15. 06. 2019 20:36

#	Modifying user name:	WinNT
#	Modification time:	15. 06. 2019 20:36

#	Program:	/corina/corina34_cracker 3.40 0067  02.08.2006

@<TRIPOS>MOLECULE
ASD03320088
  52   55    0    0    0
SMALL
NO_CHARGES


@<TRIPOS>ATOM
   1 C1            -0.0077     1.3436    -0.1945 C.ar    
   2 C2             0.0217    -0.0349     0.0276 C.ar    
   3 C3            -1.1535    -0.7599     0.0441 C.ar    
   4 C4            -2.3644    -0.1284    -0.1586 C.ar    
   5 C5            -2.4083     1.2498    -0.3814 C.ar    
   6 C6            -1.2271     1.9881    -0.3941 C.ar    
   7 C7             1.2513     2.1182    -0.2118 C.2     
   8 O8             1.2242     3.3181    -0.4053 O.2     
   9 N9             2.4293     1.4942    -0.0131 N.am    
  10 C10            3.6282     2.2089    -0.1264 C.ar    
  11 C11           -3.7060     1.9243    -0.5983 C.2     
  12 C12            3.6890     3.5334     0.2864 C.ar    
  13 C13            4.8715     4.2375     0.1743 C.ar    
  14 C14            5.9984     3.6223    -0.3510 C.ar    
  15 C15            5.9383     2.2993    -0.7641 C.ar    
  16 C16            4.7583     1.5919    -0.6464 C.ar    
  17 O17            7.1624     4.3164    -0.4615 O.3     
  18 C18            8.2830     3.6207    -1.0111 C.3     
  19 F19            7.9761     3.1926    -2.3072 F       
  20 F20            9.3889     4.4766    -1.0523 F       
  21 F21            8.5811     2.5117    -0.2120 F       
  22 S22           -3.9197     3.6455    -0.8906 S.3     
  23 C23           -5.6626     3.4412    -1.0061 C.2     
  24 C24           -5.9794     2.1555    -0.8282 C.2     
  25 C25           -4.9080     1.3145    -0.6084 C.2     
  26 C26           -6.6505     4.5503    -1.2611 C.3     
  27 N27           -7.0813     5.1265     0.0196 N.3     
  28 C28           -7.8587     6.3614    -0.1913 C.3     
  29 C29           -9.2282     6.1617     0.4912 C.3     
  30 C30           -8.9401     5.0500     1.5343 C.3     
  31 C31           -7.9149     4.1691     0.7776 C.3     
  32 H32            0.9656    -0.5351     0.1865 H       
  33 H33           -1.1252    -1.8257     0.2159 H       
  34 H34           -3.2798    -0.7015    -0.1452 H       
  35 H35           -1.2555     3.0540    -0.5659 H       
  36 H36            2.4466     0.5500     0.2084 H       
  37 H37            2.8115     4.0127     0.6948 H       
  38 H38            4.9189     5.2676     0.4954 H       
  39 H39            6.8159     1.8212    -1.1736 H       
  40 H40            4.7116     0.5620    -0.9680 H       
  41 H41           -6.9992     1.8007    -0.8542 H       
  42 H42           -5.0239     0.2525    -0.4496 H       
  43 H43           -6.1795     5.3240    -1.8675 H       
  44 H44           -7.5163     4.1513    -1.7896 H       
  45 H45           -7.3399     7.2077     0.2589 H       
  46 H46           -7.9979     6.5341    -1.2585 H       
  47 H47           -9.5504     7.0788     0.9845 H       
  48 H48           -9.9738     5.8288    -0.2308 H       
  49 H49           -8.5018     5.4686     2.4402 H       
  50 H50           -9.8444     4.4865     1.7643 H       
  51 H51           -8.4277     3.4902     0.0962 H       
  52 H52           -7.3022     3.6085     1.4835 H       
@<TRIPOS>BOND
   1    1    2 ar
   2    1    7 1
   3    1    6 ar
   4    2    3 ar
   5    2   32 1
   6    3    4 ar
   7    3   33 1
   8    4    5 ar
   9    4   34 1
  10    5    6 ar
  11    5   11 1
  12    6   35 1
  13    7    8 2
  14    7    9 am
  15    9   10 1
  16    9   36 1
  17   10   12 ar
  18   10   16 ar
  19   11   22 1
  20   11   25 2
  21   12   13 ar
  22   12   37 1
  23   13   14 ar
  24   13   38 1
  25   14   15 ar
  26   14   17 1
  27   15   16 ar
  28   15   39 1
  29   16   40 1
  30   17   18 1
  31   18   19 1
  32   18   20 1
  33   18   21 1
  34   22   23 1
  35   23   24 2
  36   23   26 1
  37   24   25 1
  38   24   41 1
  39   25   42 1
  40   26   27 1
  41   26   43 1
  42   26   44 1
  43   27   28 1
  44   27   31 1
  45   28   29 1
  46   28   45 1
  47   28   46 1
  48   29   30 1
  49   29   47 1
  50   29   48 1
  51   30   31 1
  52   30   49 1
  53   30   50 1
  54   31   51 1
  55   31   52 1

#	End of record

