#	Name: ASD01208546
#	Creating user name:	WinNT
#	Creation time:	15. 06. 2019 19:10

#	Modifying user name:	WinNT
#	Modification time:	15. 06. 2019 19:10

#	Program:	/corina/corina34_cracker 3.40 0067  02.08.2006

@<TRIPOS>MOLECULE
ASD01208546
  92   95    0    0    0
SMALL
NO_CHARGES


@<TRIPOS>ATOM
   1 C1             6.1304     1.0625    -4.0841 C.ar    
   2 C2             7.4807     1.3477    -3.9999 C.ar    
   3 C3             8.1203     1.2373    -2.7761 C.ar    
   4 C4             7.3716     0.8408    -1.6721 C.ar    
   5 C5             6.0205     0.5719    -1.8358 C.ar    
   6 N6             5.4498     0.6891    -3.0184 N.ar    
   7 S7             5.3066     1.2071    -5.6349 S.o2    
   8 O8             3.9522     1.4633    -5.2896 O.2     
   9 O9             6.0738     2.1649    -6.3513 O.2     
  10 C10            5.4716    -0.4341    -6.3898 C.3     
  11 O11            7.9558     0.7182    -0.4512 O.3     
  12 C12            9.2892     0.9617    -0.3546 C.ar    
  13 C13            9.7629     2.2643    -0.4283 C.ar    
  14 C14           11.1231     2.5184    -0.3298 C.ar    
  15 C15           12.0145     1.4722    -0.1574 C.ar    
  16 C16           11.5427     0.1613    -0.0829 C.ar    
  17 C17           10.1731    -0.0896    -0.1771 C.ar    
  18 N18           12.1591    -2.2808     0.1892 N.pl3   
  19 C19           12.4903    -0.9581     0.1011 C.2     
  20 C20           13.8578    -0.8468     0.2125 C.2     
  21 C21           14.3746    -2.1335     0.3726 C.2     
  22 C22           13.3121    -3.0109     0.3563 C.2     
  23 O23           12.3148    -5.2798     0.4704 O.3     
  24 C24           13.3967    -4.4718     0.4941 C.2     
  25 N25           14.5210    -5.1080     0.6495 N.2     
  26 C26           14.2280    -6.5497     0.7672 C.3     
  27 C27           12.7032    -6.5490     1.0346 C.3     
  28 C28           12.0174    -7.7067     0.3063 C.3     
  29 O29           10.6098    -7.6538     0.5471 O.3     
  30 Si30           9.7851    -8.9240    -0.0585 Si      
  31 C31            9.9008   -10.7050    -2.1860 C.3     
  32 C32           10.4440    -9.3427    -1.7500 C.3     
  33 C33            9.9998    -8.2729    -2.7496 C.3     
  34 C34           11.4807   -10.6670     1.2827 C.3     
  35 C35            9.9907   -10.3926     1.0692 C.3     
  36 C36            9.3282   -10.0979     2.4164 C.3     
  37 C37            7.7779    -7.4711    -1.3124 C.3     
  38 C38            7.9785    -8.4873    -0.1863 C.3     
  39 C39            7.1688    -9.7499    -0.4885 C.3     
  40 O40           11.5817     3.7956    -0.4030 O.3     
  41 C41           13.3055     5.3541     0.2602 C.3     
  42 C42           12.9973     3.9811    -0.3404 C.3     
  43 C43           13.5855     3.8975    -1.7503 C.3     
  44 O44           12.8288     6.3760    -0.6176 O.3     
  45 C45           13.0679     7.7041    -0.1476 C.3     
  46 H46            8.0304     1.6525    -4.8782 H       
  47 H47            9.1742     1.4535    -2.6812 H       
  48 H48            5.4302     0.2631    -0.9857 H       
  49 H49            5.0016    -1.1785    -5.7472 H       
  50 H50            4.9844    -0.4361    -7.3649 H       
  51 H51            6.5280    -0.6737    -6.5110 H       
  52 H52            9.0706     3.0822    -0.5630 H       
  53 H53           13.0733     1.6710    -0.0812 H       
  54 H54            9.8034    -1.1025    -0.1157 H       
  55 H55           11.2606    -2.6436     0.1454 H       
  56 H56           14.4277     0.0701     0.1812 H       
  57 H57           15.4164    -2.3937     0.4881 H       
  58 H58           14.4599    -7.0710    -0.1616 H       
  59 H59           14.7696    -6.9898     1.6045 H       
  60 H60           12.4935    -6.5825     2.1037 H       
  61 H61           12.2062    -7.6253    -0.7641 H       
  62 H62           12.4137    -8.6531     0.6742 H       
  63 H63           10.4584   -11.0576    -3.0537 H       
  64 H64           10.0106   -11.4183    -1.3691 H       
  65 H65            8.8466   -10.6096    -2.4458 H       
  66 H66           11.5329    -9.3794    -1.7169 H       
  67 H67           10.0689    -7.2897    -2.2841 H       
  68 H68           10.6451    -8.3055    -3.6274 H       
  69 H69            8.9689    -8.4613    -3.0493 H       
  70 H70           11.9173    -9.8621     1.8740 H       
  71 H71           11.6040   -11.6131     1.8097 H       
  72 H72           11.9823   -10.7212     0.3165 H       
  73 H73            9.5215   -11.2664     0.6170 H       
  74 H74            8.2667    -9.9024     2.2643 H       
  75 H75            9.4485   -10.9571     3.0762 H       
  76 H76            9.7974    -9.2241     2.8686 H       
  77 H77            6.8265    -6.9577    -1.1732 H       
  78 H78            8.5894    -6.7436    -1.2941 H       
  79 H79            7.7749    -7.9880    -2.2720 H       
  80 H80            7.6413    -8.0564     0.7564 H       
  81 H81            7.4891   -10.5541     0.1738 H       
  82 H82            6.1094    -9.5487    -0.3298 H       
  83 H83            7.3311   -10.0462    -1.5248 H       
  84 H84           12.8118     5.4467     1.2276 H       
  85 H85           14.3825     5.4603     0.3904 H       
  86 H86           13.4383     3.2041     0.2840 H       
  87 H87           14.6652     4.0390    -1.7025 H       
  88 H88           13.3659     2.9193    -2.1781 H       
  89 H89           13.1445     4.6745    -2.3747 H       
  90 H90           12.5692     7.8455     0.8112 H       
  91 H91           14.1399     7.8590    -0.0260 H       
  92 H92           12.6768     8.4210    -0.8697 H       
@<TRIPOS>BOND
   1    1    2 ar
   2    1    6 ar
   3    1    7 1
   4    2    3 ar
   5    2   46 1
   6    3    4 ar
   7    3   47 1
   8    4    5 ar
   9    4   11 1
  10    5    6 ar
  11    5   48 1
  12    7    8 2
  13    7    9 2
  14    7   10 1
  15   10   49 1
  16   10   50 1
  17   10   51 1
  18   11   12 1
  19   12   13 ar
  20   12   17 ar
  21   13   14 ar
  22   13   52 1
  23   14   15 ar
  24   14   40 1
  25   15   16 ar
  26   15   53 1
  27   16   17 ar
  28   16   19 1
  29   17   54 1
  30   18   19 1
  31   18   22 1
  32   18   55 1
  33   19   20 2
  34   20   21 1
  35   20   56 1
  36   21   22 2
  37   21   57 1
  38   22   24 1
  39   23   24 1
  40   23   27 1
  41   24   25 2
  42   25   26 1
  43   26   27 1
  44   26   58 1
  45   26   59 1
  46   27   28 1
  47   27   60 1
  48   28   29 1
  49   28   61 1
  50   28   62 1
  51   29   30 1
  52   30   32 1
  53   30   35 1
  54   30   38 1
  55   31   32 1
  56   31   63 1
  57   31   64 1
  58   31   65 1
  59   32   33 1
  60   32   66 1
  61   33   67 1
  62   33   68 1
  63   33   69 1
  64   34   35 1
  65   34   70 1
  66   34   71 1
  67   34   72 1
  68   35   36 1
  69   35   73 1
  70   36   74 1
  71   36   75 1
  72   36   76 1
  73   37   38 1
  74   37   77 1
  75   37   78 1
  76   37   79 1
  77   38   39 1
  78   38   80 1
  79   39   81 1
  80   39   82 1
  81   39   83 1
  82   40   42 1
  83   41   42 1
  84   41   44 1
  85   41   84 1
  86   41   85 1
  87   42   43 1
  88   42   86 1
  89   43   87 1
  90   43   88 1
  91   43   89 1
  92   44   45 1
  93   45   90 1
  94   45   91 1
  95   45   92 1

#	End of record

