#	Name: ASD04860001
#	Creating user name:	WinNT
#	Creation time:	15. 06. 2019 20:52

#	Modifying user name:	WinNT
#	Modification time:	15. 06. 2019 20:52

#	Program:	/corina/corina34_cracker 3.40 0067  02.08.2006

@<TRIPOS>MOLECULE
ASD04860001
  40   42    0    0    0
SMALL
NO_CHARGES


@<TRIPOS>ATOM
   1 C1            -0.7139     0.5924     0.1425 C.2     
   2 C2            -0.3174    -0.7406     0.3302 C.2     
   3 C3             0.9773    -1.0948     0.1792 C.2     
   4 N4             1.9200    -0.1655    -0.1575 N.pl3   
   5 C5             1.5591     1.1449    -0.3473 C.2     
   6 C6             0.2163     1.5302    -0.1941 C.2     
   7 C7             3.2787    -0.2742    -0.3662 C.2     
   8 C8             3.7724     0.9891    -0.6914 C.2     
   9 C9             2.7090     1.8711    -0.6806 C.2     
  10 O10            2.7685     3.2056    -0.9460 O.3     
  11 C11            2.5884     3.6052    -2.3061 C.3     
  12 C12            5.2075     1.3306    -0.9992 C.3     
  13 C13            4.0390    -1.4595    -0.2671 C.2     
  14 C14            4.1642    -2.3566    -1.4343 C.ar    
  15 O15            4.5925    -1.7429     0.7820 O.2     
  16 C16            5.0003    -3.4682    -1.3706 C.ar    
  17 C17            3.4374    -2.0913    -2.6015 C.ar    
  18 C18            3.5486    -2.9221    -3.6916 C.ar    
  19 C19            4.3849    -4.0339    -3.6431 C.ar    
  20 C20            5.1150    -4.3121    -2.4739 C.ar    
  21 C21            6.0016    -5.4875    -2.4173 C.2     
  22 O22            6.1983    -6.1489    -3.4176 O.2     
  23 N23            4.4935    -4.8678    -4.7426 N.pl3   
  24 O24            6.5943    -5.8292    -1.2563 O.3     
  25 Na25           7.7733    -7.4321    -1.2812 Du      
  26 H26           -1.7503     0.8727     0.2598 H       
  27 H27           -1.0510    -1.4869     0.5970 H       
  28 H28            1.2703    -2.1237     0.3266 H       
  29 H29           -0.0759     2.5594    -0.3421 H       
  30 H30            2.6590     4.6905    -2.3784 H       
  31 H31            3.3616     3.1489    -2.9243 H       
  32 H32            1.6073     3.2810    -2.6532 H       
  33 H33            5.4097     1.1354    -2.0524 H       
  34 H34            5.3843     2.3846    -0.7847 H       
  35 H35            5.8667     0.7189    -0.3833 H       
  36 H36            5.5582    -3.6756    -0.4694 H       
  37 H37            2.7865    -1.2306    -2.6456 H       
  38 H38            2.9848    -2.7116    -4.5884 H       
  39 H39            4.2707    -4.5363    -5.6266 H       
  40 H40            4.7923    -5.7836    -4.6291 H       
@<TRIPOS>BOND
   1    1    2 1
   2    1    6 2
   3    1   26 1
   4    2    3 2
   5    2   27 1
   6    3    4 1
   7    3   28 1
   8    4    5 1
   9    4    7 1
  10    5    6 1
  11    5    9 2
  12    6   29 1
  13    7    8 2
  14    7   13 1
  15    8    9 1
  16    8   12 1
  17    9   10 1
  18   10   11 1
  19   11   30 1
  20   11   31 1
  21   11   32 1
  22   12   33 1
  23   12   34 1
  24   12   35 1
  25   13   14 1
  26   13   15 2
  27   14   16 ar
  28   14   17 ar
  29   16   20 ar
  30   16   36 1
  31   17   18 ar
  32   17   37 1
  33   18   19 ar
  34   18   38 1
  35   19   20 ar
  36   19   23 1
  37   20   21 1
  38   21   22 2
  39   21   24 1
  40   23   39 1
  41   23   40 1
  42   24   25 1

#	End of record

