#	Name: ASD01883233
#	Creating user name:	WinNT
#	Creation time:	15. 06. 2019 19:46

#	Modifying user name:	WinNT
#	Modification time:	15. 06. 2019 19:46

#	Program:	/corina/corina34_cracker 3.40 0067  02.08.2006

@<TRIPOS>MOLECULE
ASD01883233
  47   49    0    0    0
SMALL
NO_CHARGES


@<TRIPOS>ATOM
   1 N1             0.5426     0.0792     0.4283 N.am    
   2 C2             0.3355    -1.1853     0.0168 C.2     
   3 C3            -0.9835    -1.6965    -0.0594 C.2     
   4 C4            -2.0540    -0.8586     0.3014 C.2     
   5 C5            -1.7715     0.4556     0.7242 C.2     
   6 C6            -0.4912     0.8861     0.7814 C.2     
   7 O7             1.2818    -1.8900    -0.2904 O.2     
   8 C8            -1.2221    -3.0395    -0.4955 C.1     
   9 N9            -1.4114    -4.1048    -0.8415 N.1     
  10 C10            1.9122     0.5941     0.5026 C.3     
  11 C11            2.2900     1.2333    -0.8352 C.3     
  12 C12            3.7203     1.7710    -0.7576 C.3     
  13 C13            4.6943     0.6051    -0.5766 C.3     
  14 C14            4.0547     2.5191    -2.0497 C.3     
  15 C15           -3.4467    -1.3463     0.2380 C.ar    
  16 C16           -4.1982    -1.4734     1.4094 C.ar    
  17 C17           -5.4959    -1.9283     1.3471 C.ar    
  18 C18           -6.0596    -2.2621     0.1190 C.ar    
  19 C19           -5.3137    -2.1370    -1.0494 C.ar    
  20 C20           -4.0176    -1.6763    -0.9942 C.ar    
  21 N21           -7.3720    -2.7222     0.0593 N.pl3   
  22 C22           -8.2112    -2.7005     1.2599 C.3     
  23 C23           -9.7260    -2.7923     1.0648 C.3     
  24 C24           -8.9532    -3.9873     1.6266 C.3     
  25 H25           -2.5771     1.1175     1.0059 H       
  26 H26           -0.2868     1.8954     1.1069 H       
  27 H27            1.9770     1.3414     1.2935 H       
  28 H28            2.5971    -0.2254     0.7200 H       
  29 H29            2.2251     0.4860    -1.6261 H       
  30 H30            1.6050     2.0528    -1.0526 H       
  31 H31            3.8071     2.4518     0.0893 H       
  32 H32            5.7133     0.9882    -0.5214 H       
  33 H33            4.4561     0.0721     0.3439 H       
  34 H34            4.6075    -0.0757    -1.4235 H       
  35 H35            3.3607     3.3497    -2.1786 H       
  36 H36            5.0736     2.9022    -1.9944 H       
  37 H37            3.9679     1.8383    -2.8965 H       
  38 H38           -3.7611    -1.2153     2.3627 H       
  39 H39           -6.0771    -2.0267     2.2520 H       
  40 H40           -5.7537    -2.3971    -2.0007 H       
  41 H41           -3.4394    -1.5792    -1.9012 H       
  42 H42           -7.7309    -3.0573    -0.7773 H       
  43 H43           -7.8458    -2.0793     2.0777 H       
  44 H44          -10.3571    -2.2318     1.7545 H       
  45 H45          -10.0981    -2.8689     0.0432 H       
  46 H46           -8.8169    -4.8501     0.9746 H       
  47 H47           -9.0759    -4.2130     2.6859 H       
@<TRIPOS>BOND
   1    1    2 am
   2    1   10 1
   3    1    6 1
   4    2    3 1
   5    2    7 2
   6    3    4 2
   7    3    8 1
   8    4    5 1
   9    4   15 1
  10    5    6 2
  11    5   25 1
  12    6   26 1
  13    8    9 3
  14   10   11 1
  15   10   27 1
  16   10   28 1
  17   11   12 1
  18   11   29 1
  19   11   30 1
  20   12   13 1
  21   12   14 1
  22   12   31 1
  23   13   32 1
  24   13   33 1
  25   13   34 1
  26   14   35 1
  27   14   36 1
  28   14   37 1
  29   15   16 ar
  30   15   20 ar
  31   16   17 ar
  32   16   38 1
  33   17   18 ar
  34   17   39 1
  35   18   19 ar
  36   18   21 1
  37   19   20 ar
  38   19   40 1
  39   20   41 1
  40   21   22 1
  41   21   42 1
  42   22   23 1
  43   22   24 1
  44   22   43 1
  45   23   24 1
  46   23   44 1
  47   23   45 1
  48   24   46 1
  49   24   47 1

#	End of record

