#	Name: ASD01200033
#	Creating user name:	WinNT
#	Creation time:	15. 06. 2019 19:08

#	Modifying user name:	WinNT
#	Modification time:	15. 06. 2019 19:08

#	Program:	/corina/corina34_cracker 3.40 0067  02.08.2006

@<TRIPOS>MOLECULE
ASD01200033
  42   45    0    0    0
SMALL
NO_CHARGES


@<TRIPOS>ATOM
   1 C1            -0.0948     1.4320    -0.6192 C.ar    
   2 C2            -0.0534     0.0369    -0.5699 C.ar    
   3 C3            -1.2212    -0.6693    -0.3695 C.ar    
   4 C4            -2.4146     0.0425    -0.2216 C.ar    
   5 C5            -2.3833     1.4413    -0.2818 C.ar    
   6 N6            -1.2329     2.0827    -0.4720 N.ar    
   7 C7            -3.6338     2.2095    -0.1282 C.2     
   8 N8            -3.6090     3.5558    -0.1853 N.am    
   9 C9            -4.7859     4.2787    -0.0408 C.2     
  10 S10           -3.9364    -0.8073     0.0362 S.3     
  11 C11           -3.4774    -2.5006    -0.1275 C.ar    
  12 S12            1.3957     2.3363    -0.8746 S.3     
  13 C13            0.8501     4.0117    -0.8608 C.2     
  14 N14           -4.8727     5.5718    -0.0794 N.2     
  15 C15           -6.0744     6.0948     0.0768 C.2     
  16 C16           -7.0494     5.2014     0.2559 C.2     
  17 S17           -6.3324     3.5930     0.2067 S.3     
  18 N18            1.6303     5.1209    -1.0197 N.pl3   
  19 C19            0.7793     6.1874    -0.9368 C.2     
  20 N20           -0.4189     5.7134    -0.7415 N.2     
  21 N21           -0.3841     4.4292    -0.7015 N.2     
  22 C22           -3.1340    -3.2409     0.9970 C.ar    
  23 C23           -2.7747    -4.5678     0.8649 C.ar    
  24 C24           -2.7565    -5.1598    -0.3847 C.ar    
  25 C25           -3.0979    -4.4259    -1.5064 C.ar    
  26 C26           -3.4636    -3.1005    -1.3812 C.ar    
  27 O27           -4.6867     1.6278     0.0500 O.2     
  28 C28           -3.0765    -5.0755    -2.8660 C.3     
  29 H29            0.8850    -0.4846    -0.6881 H       
  30 H30           -1.2134    -1.7485    -0.3281 H       
  31 H31           -2.7692     4.0198    -0.3274 H       
  32 H32           -6.2541     7.1596     0.0610 H       
  33 H33           -8.0959     5.4252     0.4016 H       
  34 H34            2.5895     5.1468    -1.1617 H       
  35 H35            1.0498     7.2298    -1.0177 H       
  36 H36           -3.1476    -2.7791     1.9732 H       
  37 H37           -2.5073    -5.1438     1.7385 H       
  38 H38           -2.4749    -6.1976    -0.4851 H       
  39 H39           -3.7303    -2.5281    -2.2574 H       
  40 H40           -4.0539    -5.5098    -3.0765 H       
  41 H41           -2.8409    -4.3271    -3.6226 H       
  42 H42           -2.3194    -5.8595    -2.8823 H       
@<TRIPOS>BOND
   1    1    2 ar
   2    1   12 1
   3    1    6 ar
   4    2    3 ar
   5    2   29 1
   6    3    4 ar
   7    3   30 1
   8    4    5 ar
   9    4   10 1
  10    5    6 ar
  11    5    7 1
  12    7    8 am
  13    7   27 2
  14    8    9 1
  15    8   31 1
  16    9   14 2
  17    9   17 1
  18   10   11 1
  19   11   22 ar
  20   11   26 ar
  21   12   13 1
  22   13   18 1
  23   13   21 2
  24   14   15 1
  25   15   16 2
  26   15   32 1
  27   16   17 1
  28   16   33 1
  29   18   19 1
  30   18   34 1
  31   19   20 2
  32   19   35 1
  33   20   21 1
  34   22   23 ar
  35   22   36 1
  36   23   24 ar
  37   23   37 1
  38   24   25 ar
  39   24   38 1
  40   25   26 ar
  41   25   28 1
  42   26   39 1
  43   28   40 1
  44   28   41 1
  45   28   42 1

#	End of record

