#	Name: ASD01151121
#	Creating user name:	WinNT
#	Creation time:	15. 06. 2019 19:05

#	Modifying user name:	WinNT
#	Modification time:	15. 06. 2019 19:05

#	Program:	/corina/corina34_cracker 3.40 0067  02.08.2006

@<TRIPOS>MOLECULE
ASD01151121
  66   69    0    0    0
SMALL
NO_CHARGES


@<TRIPOS>ATOM
   1 C1            -0.4539     1.3096    -0.1477 C.3     
   2 C2            -0.0968    -0.1683     0.0231 C.3     
   3 C3            -1.3804    -0.9941     0.1296 C.3     
   4 C4             0.7021    -0.6329    -1.1672 C.2     
   5 C5             0.2461    -0.3830    -2.4625 C.2     
   6 C6            -1.0516     0.3546    -2.6701 C.3     
   7 N7             0.9417    -0.7865    -3.5024 N.2     
   8 C8             2.0997    -1.4448    -3.3454 C.2     
   9 C9             3.0116    -1.9705    -4.2509 C.2     
  10 F10            2.9149    -1.9250    -5.5977 F       
  11 C11            4.0406    -2.5513    -3.5223 C.2     
  12 N12            3.7938    -2.4017    -2.2401 N.2     
  13 N13            2.5855    -1.7125    -2.0900 N.pl3   
  14 C14            1.8838    -1.2986    -0.9881 C.2     
  15 N15            2.3588    -1.5533     0.2809 N.pl3   
  16 C16            3.6043    -0.9329     0.7526 C.3     
  17 C17            4.5424    -2.0333     1.2585 C.3     
  18 C18            3.8176    -2.8701     2.3151 C.3     
  19 C19            2.5890    -3.5333     1.6885 C.3     
  20 C20            3.0258    -4.4113     0.5141 C.3     
  21 C21            1.6258    -2.4455     1.1895 C.3     
  22 C22            1.8946    -4.3834     2.7210 C.2     
  23 O23            2.5494    -5.3999     3.3039 O.3     
  24 O24            0.7486    -4.1500     3.0242 O.2     
  25 C25            5.2454    -3.2425    -4.1070 C.3     
  26 H26            5.1863    -3.2172    -5.1951 H       
  27 C27            6.5170    -2.5257    -3.6485 C.3     
  28 C28            7.7402    -3.2274    -4.2421 C.3     
  29 C29            7.7747    -4.6813    -3.7668 C.3     
  30 H30            7.8338    -4.7066    -2.6787 H       
  31 C31            6.5031    -5.3981    -4.2253 C.3     
  32 C32            5.2799    -4.6964    -3.6317 C.3     
  33 C33            8.9979    -5.3830    -4.3604 C.3     
  34 F34           10.1606    -4.7276    -3.9412 F       
  35 F35            9.0295    -6.7124    -3.9259 F       
  36 F36            8.9221    -5.3505    -5.7570 F       
  37 H37            0.4606     1.8979    -0.2235 H       
  38 H38           -1.0448     1.4382    -1.0545 H       
  39 H39           -1.0317     1.6456     0.7133 H       
  40 H40            0.4941    -0.2969     0.9300 H       
  41 H41           -2.0415    -0.7467    -0.7010 H       
  42 H42           -1.1338    -2.0552     0.0940 H       
  43 H43           -1.8804    -0.7686     1.0715 H       
  44 H44           -0.8573     1.4261    -2.7155 H       
  45 H45           -1.5095     0.0284    -3.6040 H       
  46 H46           -1.7267     0.1425    -1.8410 H       
  47 H47            4.0794    -0.3968    -0.0689 H       
  48 H48            3.3828    -0.2400     1.5643 H       
  49 H49            4.8353    -2.6729     0.4259 H       
  50 H50            5.4303    -1.5801     1.6995 H       
  51 H51            4.4912    -3.6386     2.6945 H       
  52 H52            3.5034    -2.2255     3.1360 H       
  53 H53            3.7113    -5.1802     0.8705 H       
  54 H54            2.1504    -4.8834     0.0680 H       
  55 H55            3.5269    -3.7958    -0.2330 H       
  56 H56            1.2462    -1.8734     2.0360 H       
  57 H57            0.7950    -2.9077     0.6562 H       
  58 H58            2.0625    -5.9169     3.9603 H       
  59 H59            6.4924    -1.4899    -3.9870 H       
  60 H60            6.5761    -2.5510    -2.5603 H       
  61 H61            7.6811    -3.2021    -5.3302 H       
  62 H62            8.6461    -2.7168    -3.9154 H       
  63 H63            6.4441    -5.3728    -5.3134 H       
  64 H64            6.5277    -6.4339    -3.8868 H       
  65 H65            5.3390    -4.7217    -2.5436 H       
  66 H66            4.3740    -5.2070    -3.9584 H       
@<TRIPOS>BOND
   1    1    2 1
   2    1   37 1
   3    1   38 1
   4    1   39 1
   5    2    3 1
   6    2    4 1
   7    2   40 1
   8    3   41 1
   9    3   42 1
  10    3   43 1
  11    4   14 2
  12    4    5 1
  13    5    6 1
  14    5    7 2
  15    6   44 1
  16    6   45 1
  17    6   46 1
  18    7    8 1
  19    8   13 1
  20    8    9 2
  21    9   10 1
  22    9   11 1
  23   11   12 2
  24   11   25 1
  25   12   13 1
  26   13   14 1
  27   14   15 1
  28   15   21 1
  29   15   16 1
  30   16   17 1
  31   16   47 1
  32   16   48 1
  33   17   18 1
  34   17   49 1
  35   17   50 1
  36   18   19 1
  37   18   51 1
  38   18   52 1
  39   19   20 1
  40   19   21 1
  41   19   22 1
  42   20   53 1
  43   20   54 1
  44   20   55 1
  45   21   56 1
  46   21   57 1
  47   22   23 1
  48   22   24 2
  49   23   58 1
  50   25   26 1
  51   25   32 1
  52   25   27 1
  53   27   28 1
  54   27   59 1
  55   27   60 1
  56   28   29 1
  57   28   61 1
  58   28   62 1
  59   29   30 1
  60   29   31 1
  61   29   33 1
  62   31   32 1
  63   31   63 1
  64   31   64 1
  65   32   65 1
  66   32   66 1
  67   33   34 1
  68   33   35 1
  69   33   36 1

#	End of record

