#	Name: ASD01141122
#	Creating user name:	WinNT
#	Creation time:	15. 06. 2019 19:01

#	Modifying user name:	WinNT
#	Modification time:	15. 06. 2019 19:01

#	Program:	/corina/corina34_cracker 3.40 0067  02.08.2006

@<TRIPOS>MOLECULE
ASD01141122
  57   60    0    0    0
SMALL
NO_CHARGES


@<TRIPOS>ATOM
   1 C1            -0.0954     2.3167    -0.2681 C.3     
   2 C2            -0.2636     0.7978    -0.3020 C.3     
   3 C3             0.3971     0.1676     0.9255 C.3     
   4 C4             1.8797     0.5405     0.9540 C.3     
   5 C5             2.0428     2.0566     1.0184 C.3     
   6 C6             1.3874     2.6861    -0.2104 C.3     
   7 C7             2.5781    -0.1400     2.1286 C.3     
   8 C8             4.0685     0.2235     2.1340 C.3     
   9 C9             4.3550     1.1277     0.9362 C.3     
  10 C10            3.5366     2.4108     1.0656 C.3     
  11 C11            5.8062     1.4102     0.7336 C.3     
  12 C12            6.1774     2.8961     0.9293 C.3     
  13 C13            5.4031     3.7490    -0.0422 C.3     
  14 C14            3.9038     3.4250    -0.0026 C.3     
  15 C15            6.8360     0.7258     1.6445 C.3     
  16 C16            8.1408     1.4505     1.1939 C.3     
  17 C17            7.7004     2.8406     0.6700 C.3     
  18 C18            6.0085     3.3849     2.3664 C.3     
  19 C19            1.3898     2.6165     2.2858 C.3     
  20 H20            2.3296     0.1761     0.0203 H       
  21 O21            0.3385     0.2770    -1.4897 O.3     
  22 C22           -1.7563     0.4552    -0.3019 C.3     
  23 N23            8.3655     3.9042     1.4203 N.pl3   
  24 O24            9.0607     4.7172     0.8379 O.2     
  25 O25            8.2246     3.9773     2.6279 O.2     
  26 H26           -0.5269     2.7386    -1.1840 H       
  27 H27           -0.6289     2.7319     0.5826 H       
  28 H28           -0.1036     0.4929     1.8318 H       
  29 H29            0.3111    -0.9226     0.8510 H       
  30 H30            1.8811     2.3188    -1.1122 H       
  31 H31            1.4862     3.7711    -0.1636 H       
  32 H32            2.1223     0.1532     3.0703 H       
  33 H33            2.4825    -1.2258     2.0179 H       
  34 H34            4.3120     0.7474     3.0578 H       
  35 H35            4.6641    -0.6867     2.0565 H       
  36 H36            3.9996     0.5934     0.0313 H       
  37 H37            3.6823     2.8454     2.0587 H       
  38 H38            6.0671     1.1298    -0.3137 H       
  39 H39            5.5533     4.8101     0.1986 H       
  40 H40            5.7847     3.5840    -1.0597 H       
  41 H41            3.6044     3.0393    -0.9872 H       
  42 H42            3.3451     4.3545     0.1714 H       
  43 H43            6.6366     0.8816     2.6941 H       
  44 H44            6.9014    -0.3382     1.4134 H       
  45 H45            8.8144     1.5625     2.0414 H       
  46 H46            8.6200     0.8841     0.3970 H       
  47 H47            7.8930     2.9311    -0.3936 H       
  48 H48            6.6824     2.8312     3.0201 H       
  49 H49            6.2438     4.4480     2.4186 H       
  50 H50            4.9789     3.2245     2.6861 H       
  51 H51            1.8608     2.1734     3.1633 H       
  52 H52            1.5172     3.6987     2.3125 H       
  53 H53            0.3267     2.3757     2.2836 H       
  54 H54           -0.0418     0.6241    -2.3082 H       
  55 H55           -2.2301     0.8950    -1.1795 H       
  56 H56           -1.8807    -0.6274    -0.3260 H       
  57 H57           -2.2206     0.8543     0.6000 H       
@<TRIPOS>BOND
   1    1    2 1
   2    1    6 1
   3    1   26 1
   4    1   27 1
   5    2    3 1
   6    2   21 1
   7    2   22 1
   8    3    4 1
   9    3   28 1
  10    3   29 1
  11    4    5 1
  12    4    7 1
  13    4   20 1
  14    5    6 1
  15    5   19 1
  16    5   10 1
  17    6   30 1
  18    6   31 1
  19    7    8 1
  20    7   32 1
  21    7   33 1
  22    8    9 1
  23    8   34 1
  24    8   35 1
  25    9   10 1
  26    9   11 1
  27    9   36 1
  28   10   14 1
  29   10   37 1
  30   11   12 1
  31   11   15 1
  32   11   38 1
  33   12   13 1
  34   12   18 1
  35   12   17 1
  36   13   14 1
  37   13   39 1
  38   13   40 1
  39   14   41 1
  40   14   42 1
  41   15   16 1
  42   15   43 1
  43   15   44 1
  44   16   17 1
  45   16   45 1
  46   16   46 1
  47   17   23 1
  48   17   47 1
  49   18   48 1
  50   18   49 1
  51   18   50 1
  52   19   51 1
  53   19   52 1
  54   19   53 1
  55   21   54 1
  56   22   55 1
  57   22   56 1
  58   22   57 1
  59   23   24 2
  60   23   25 2

#	End of record

