#	Name: ASD03490063
#	Creating user name:	WinNT
#	Creation time:	15. 06. 2019 20:42

#	Modifying user name:	WinNT
#	Modification time:	15. 06. 2019 20:42

#	Program:	/corina/corina34_cracker 3.40 0067  02.08.2006

@<TRIPOS>MOLECULE
ASD03490063
  52   53    0    0    0
SMALL
NO_CHARGES


@<TRIPOS>ATOM
   1 O1            -0.0173     1.4248     0.0099 O.3     
   2 C2             0.0021    -0.0041     0.0020 C.3     
   3 C3            -1.4333    -0.5336     0.0129 C.3     
   4 C4            -1.4133    -2.0590     0.1302 C.3     
   5 O5            -2.0889    -0.1578    -1.2000 O.3     
   6 C6            -2.8486    -2.5886     0.1411 C.3     
   7 O7            -0.7577    -2.4349     1.3431 O.3     
   8 O8            -3.5856    -1.9467     1.1837 O.3     
   9 C9            -2.8334    -4.0999     0.3849 C.3     
  10 C10           -4.2752    -4.6126     0.4544 C.3     
  11 C11           -5.0228    -3.8537     1.5550 C.3     
  12 C12           -4.9535    -2.3519     1.2660 C.3     
  13 C13           -5.6360    -1.5945     2.3758 C.2     
  14 O14           -5.6082    -2.0744     0.0265 O.3     
  15 N15           -2.1294    -4.7659    -0.7137 N.am    
  16 C16           -1.5493    -5.9658    -0.5131 C.2     
  17 C17           -0.8250    -6.6510    -1.6433 C.3     
  18 O18           -1.6101    -6.4942     0.5768 O.2     
  19 O19           -4.2718    -6.0097     0.7547 O.3     
  20 O20           -5.0416    -0.7257     2.9688 O.2     
  21 O21           -6.9043    -1.8852     2.7054 O.3     
  22 C22           -7.4981    -1.1154     3.7840 C.3     
  23 C23           -8.9142    -1.5781     4.0110 C.2     
  24 O24           -9.9390    -1.4623     3.1314 O.3     
  25 C25           -9.3709    -2.1731     5.1014 C.2     
  26 O26          -10.6891    -2.4323     4.9211 O.3     
  27 C27          -11.0343    -1.9904     3.7011 C.2     
  28 C28           -8.5648    -2.5053     6.3305 C.3     
  29 O29          -12.1408    -2.0560     3.2017 O.2     
  30 H30            0.8606     1.8301     0.0037 H       
  31 H31            0.5123    -0.3556    -0.8948 H       
  32 H32            0.5293    -0.3651     0.8851 H       
  33 H33           -1.9701    -0.1109     0.8621 H       
  34 H34           -0.8764    -2.4817    -0.7190 H       
  35 H35           -1.6646    -0.4999    -1.9987 H       
  36 H36           -3.3204    -2.3799    -0.8191 H       
  37 H37           -0.7082    -3.3903     1.4837 H       
  38 H38           -2.3257    -4.3120     1.3258 H       
  39 H39           -4.7682    -4.4453    -0.5033 H       
  40 H40           -6.0647    -4.1732     1.5745 H       
  41 H41           -4.5593    -4.0608     2.5196 H       
  42 H42           -5.6028    -1.1395    -0.2205 H       
  43 H43           -2.0807    -4.3434    -1.5855 H       
  44 H44           -0.8761    -6.0295    -2.5373 H       
  45 H45            0.2180    -6.8043    -1.3664 H       
  46 H46           -1.2932    -7.6147    -1.8435 H       
  47 H47           -5.1539    -6.4014     0.8139 H       
  48 H48           -6.9181    -1.2598     4.6955 H       
  49 H49           -7.4995    -0.0584     3.5179 H       
  50 H50           -8.6052    -1.6691     7.0285 H       
  51 H51           -8.9771    -3.3954     6.8057 H       
  52 H52           -7.5292    -2.6917     6.0464 H       
@<TRIPOS>BOND
   1    1    2 1
   2    1   30 1
   3    2    3 1
   4    2   31 1
   5    2   32 1
   6    3    4 1
   7    3    5 1
   8    3   33 1
   9    4    7 1
  10    4    6 1
  11    4   34 1
  12    5   35 1
  13    6    8 1
  14    6    9 1
  15    6   36 1
  16    7   37 1
  17    8   12 1
  18    9   10 1
  19    9   15 1
  20    9   38 1
  21   10   11 1
  22   10   19 1
  23   10   39 1
  24   11   12 1
  25   11   40 1
  26   11   41 1
  27   12   13 1
  28   12   14 1
  29   13   20 2
  30   13   21 1
  31   14   42 1
  32   15   16 am
  33   15   43 1
  34   16   17 1
  35   16   18 2
  36   17   44 1
  37   17   45 1
  38   17   46 1
  39   19   47 1
  40   21   22 1
  41   22   23 1
  42   22   48 1
  43   22   49 1
  44   23   24 1
  45   23   25 2
  46   24   27 1
  47   25   26 1
  48   25   28 1
  49   26   27 1
  50   27   29 2
  51   28   50 1
  52   28   51 1
  53   28   52 1

#	End of record

