#	Name: ASD01810348
#	Creating user name:	WinNT
#	Creation time:	15. 06. 2019 19:24

#	Modifying user name:	WinNT
#	Modification time:	15. 06. 2019 19:24

#	Program:	/corina/corina34_cracker 3.40 0067  02.08.2006

@<TRIPOS>MOLECULE
ASD01810348
  37   39    0    0    0
SMALL
NO_CHARGES


@<TRIPOS>ATOM
   1 C1            -0.0167     1.3836     0.0096 C.ar    
   2 C2             0.0021    -0.0041     0.0020 C.ar    
   3 C3             1.1956    -0.6917    -0.0130 C.ar    
   4 C4             2.4008     0.0061    -0.0207 C.ar    
   5 C5             2.3791     1.4109    -0.0130 C.ar    
   6 C6             1.1630     2.0941     0.0022 C.ar    
   7 N7             3.6011    -0.6714    -0.0353 N.pl3   
   8 C8             4.7857    -0.0499    -0.0428 C.2     
   9 C9             4.8937     1.3297    -0.0360 C.2     
  10 C10            3.6620     2.1385    -0.0214 C.2     
  11 O11            3.7017     3.3561    -0.0152 O.2     
  12 C12            6.2072     1.9737    -0.0436 C.2     
  13 C13            3.5785    -2.1362    -0.0424 C.3     
  14 C14            3.5576    -2.6314    -1.4656 C.ar    
  15 C15            4.7459    -2.8766    -2.1286 C.ar    
  16 C16            4.7293    -3.3305    -3.4332 C.ar    
  17 C17            3.5191    -3.5404    -4.0781 C.ar    
  18 C18            2.3281    -3.2937    -3.4107 C.ar    
  19 C19            2.3500    -2.8452    -2.1042 C.ar    
  20 O20            7.2147     1.2972    -0.0561 O.2     
  21 *21            6.3129     3.5301    -0.0358 Du      
  22 O22            3.5002    -3.9865    -5.3617 O.3     
  23 C23            2.2181    -4.1802    -5.9624 C.3     
  24 H24           -0.9606     1.9085     0.0170 H       
  25 H25           -0.9293    -0.5508     0.0083 H       
  26 H26            1.1967    -1.7717    -0.0185 H       
  27 H27            1.1467     3.1740     0.0078 H       
  28 H28            5.6873    -0.6444    -0.0542 H       
  29 H29            4.4676    -2.5158     0.4613 H       
  30 H30            2.6879    -2.4884     0.4780 H       
  31 H31            5.6878    -2.7127    -1.6263 H       
  32 H32            5.6578    -3.5215    -3.9508 H       
  33 H33            1.3847    -3.4563    -3.9106 H       
  34 H34            1.4232    -2.6529    -1.5842 H       
  35 H35            2.3458    -4.5370    -6.9843 H       
  36 H36            1.6553    -4.9161    -5.3882 H       
  37 H37            1.6752    -3.2350    -5.9728 H       
@<TRIPOS>BOND
   1    1    2 ar
   2    1    6 ar
   3    1   24 1
   4    2    3 ar
   5    2   25 1
   6    3    4 ar
   7    3   26 1
   8    4    5 ar
   9    4    7 1
  10    5    6 ar
  11    5   10 1
  12    6   27 1
  13    7    8 1
  14    7   13 1
  15    8    9 2
  16    8   28 1
  17    9   10 1
  18    9   12 1
  19   10   11 2
  20   12   21 1
  21   12   20 2
  22   13   14 1
  23   13   29 1
  24   13   30 1
  25   14   15 ar
  26   14   19 ar
  27   15   16 ar
  28   15   31 1
  29   16   17 ar
  30   16   32 1
  31   17   22 1
  32   17   18 ar
  33   18   19 ar
  34   18   33 1
  35   19   34 1
  36   22   23 1
  37   23   35 1
  38   23   36 1
  39   23   37 1

#	End of record

