#	Name: ASD04590189
#	Creating user name:	WinNT
#	Creation time:	15. 06. 2019 20:50

#	Modifying user name:	WinNT
#	Modification time:	15. 06. 2019 20:50

#	Program:	/corina/corina34_cracker 3.40 0067  02.08.2006

@<TRIPOS>MOLECULE
ASD04590189
  44   46    0    0    0
SMALL
NO_CHARGES


@<TRIPOS>ATOM
   1 N1            -0.0153     1.2802     0.0091 N.pl3   
   2 N2             0.0021    -0.0041     0.0020 N.2     
   3 C3             1.2455    -0.4440    -0.0122 C.2     
   4 C4             2.0903     0.6961    -0.0142 C.2     
   5 C5             1.2523     1.7667    -0.0004 C.2     
   6 C6             1.6765    -1.8547    -0.0235 C.2     
   7 N7             0.7571    -2.8402    -0.0200 N.am    
   8 N8             3.4929     0.7146    -0.0275 N.am    
   9 O9             2.8611    -2.1284    -0.0359 O.2     
  10 C10            4.1514     1.8906    -0.0274 C.2     
  11 C11            5.6271     1.9101    -0.0414 C.ar    
  12 O12            3.5296     2.9356    -0.0159 O.2     
  13 C13            1.1851    -4.2412    -0.0312 C.3     
  14 C14            0.0782    -5.1078    -0.6351 C.3     
  15 C15            0.5251    -6.5710    -0.6468 C.3     
  16 C16            0.8077    -7.0294     0.7853 C.3     
  17 C17            1.9146    -6.1628     1.3892 C.3     
  18 C18            1.4676    -4.6996     1.4009 C.3     
  19 O19           -0.3798    -6.9003     1.5698 O.3     
  20 C20            6.3418     1.9129     1.1612 C.ar    
  21 C21            7.7239     1.9313     1.1388 C.ar    
  22 C22            8.3990     1.9469    -0.0680 C.ar    
  23 C23            7.6987     1.9447    -1.2611 C.ar    
  24 C24            6.3182     1.9201    -1.2562 C.ar    
  25 Cl25           5.4426     1.9169    -2.7553 Cl      
  26 F26            5.6834     1.8982     2.3408 F       
  27 H27           -0.8184     1.8242     0.0160 H       
  28 H28            1.5405     2.8076     0.0024 H       
  29 H29           -0.1880    -2.6218    -0.0102 H       
  30 H30            3.9889    -0.1189    -0.0367 H       
  31 H31            2.0908    -4.3397    -0.6296 H       
  32 H32           -0.8276    -5.0094    -0.0367 H       
  33 H33           -0.1231    -4.7812    -1.6554 H       
  34 H34           -0.2635    -7.1884    -1.0770 H       
  35 H35            1.4309    -6.6695    -1.2451 H       
  36 H36            1.1261    -8.0718     0.7770 H       
  37 H37            2.1158    -6.4894     2.4095 H       
  38 H38            2.8203    -6.2613     0.7908 H       
  39 H39            2.2562    -4.0823     1.8311 H       
  40 H40            0.5619    -4.6012     1.9993 H       
  41 H41           -0.2740    -7.1738     2.4913 H       
  42 H42            8.2777     1.9339     2.0660 H       
  43 H43            9.4788     1.9612    -0.0791 H       
  44 H44            8.2335     1.9577    -2.1993 H       
@<TRIPOS>BOND
   1    1    2 1
   2    1    5 1
   3    1   27 1
   4    2    3 2
   5    3    4 1
   6    3    6 1
   7    4    5 2
   8    4    8 1
   9    5   28 1
  10    6    7 am
  11    6    9 2
  12    7   13 1
  13    7   29 1
  14    8   10 am
  15    8   30 1
  16   10   11 1
  17   10   12 2
  18   11   20 ar
  19   11   24 ar
  20   13   14 1
  21   13   18 1
  22   13   31 1
  23   14   15 1
  24   14   32 1
  25   14   33 1
  26   15   16 1
  27   15   34 1
  28   15   35 1
  29   16   17 1
  30   16   19 1
  31   16   36 1
  32   17   18 1
  33   17   37 1
  34   17   38 1
  35   18   39 1
  36   18   40 1
  37   19   41 1
  38   20   21 ar
  39   20   26 1
  40   21   22 ar
  41   21   42 1
  42   22   23 ar
  43   22   43 1
  44   23   24 ar
  45   23   44 1
  46   24   25 1

#	End of record

