#	Name: ASD04910381
#	Creating user name:	WinNT
#	Creation time:	15. 06. 2019 20:55

#	Modifying user name:	WinNT
#	Modification time:	15. 06. 2019 20:55

#	Program:	/corina/corina34_cracker 3.40 0067  02.08.2006

@<TRIPOS>MOLECULE
ASD04910381
  58   61    0    0    0
SMALL
NO_CHARGES


@<TRIPOS>ATOM
   1 C1            -0.1621     1.4802     0.0988 C.2     
   2 C2            -0.1030     0.0045     0.0634 C.ar    
   3 C3             1.1308    -0.6466     0.0052 C.ar    
   4 C4             1.1788    -2.0249    -0.0271 C.ar    
   5 C5             0.0080    -2.7618    -0.0024 C.ar    
   6 C6            -1.2180    -2.1230     0.0548 C.ar    
   7 C7            -1.2803    -0.7455     0.0938 C.ar    
   8 O8             0.8640     2.1299     0.0772 O.2     
   9 O9            -1.3543     2.1055     0.1493 O.3     
  10 C10            0.0684    -4.2672    -0.0385 C.3     
  11 C11           -0.1112    -4.8189     1.3772 C.3     
  12 C12            0.0740    -6.3375     1.3601 C.3     
  13 C13           -0.1056    -6.8892     2.7758 C.3     
  14 O14           -0.9737    -4.7657    -0.8798 O.3     
  15 C15           -0.7107    -5.8995    -1.5820 C.ar    
  16 C16            0.5517    -6.4725    -1.5266 C.ar    
  17 C17            0.8193    -7.6241    -2.2396 C.ar    
  18 C18           -0.1750    -8.2088    -3.0122 C.ar    
  19 C19           -1.4381    -7.6351    -3.0673 C.ar    
  20 C20           -1.7063    -6.4866    -2.3494 C.ar    
  21 N21            1.3217   -10.0617    -3.7729 N.2     
  22 N22            0.0965    -9.3787    -3.7373 N.pl3   
  23 C23           -0.7778   -10.0477    -4.5263 C.2     
  24 C24           -0.1311   -11.1107    -5.0398 C.2     
  25 C25           -0.6627   -12.1645    -5.9798 C.3     
  26 C26            0.5321   -12.9036    -6.5955 C.3     
  27 C27            1.4849   -13.3579    -5.4875 C.3     
  28 C28            2.2159   -12.1431    -4.9025 C.3     
  29 C29            1.1858   -11.0976    -4.5497 C.2     
  30 C30           -1.3365     3.5570     0.1818 C.3     
  31 H31            2.0454    -0.0726    -0.0149 H       
  32 H32            2.1324    -2.5298    -0.0722 H       
  33 H33           -2.1281    -2.7042     0.0730 H       
  34 H34           -2.2377    -0.2481     0.1433 H       
  35 H35            1.0348    -4.5827    -0.4315 H       
  36 H36            0.6296    -4.3699     2.0388 H       
  37 H37           -1.1120    -4.5789     1.7364 H       
  38 H38           -0.6668    -6.7865     0.6985 H       
  39 H39            1.0748    -6.5775     1.0009 H       
  40 H40            0.0263    -7.9711     2.7636 H       
  41 H41            0.6352    -6.4402     3.4374 H       
  42 H42           -1.1064    -6.6493     3.1350 H       
  43 H43            1.3253    -6.0174    -0.9258 H       
  44 H44            1.8021    -8.0698    -2.1967 H       
  45 H45           -2.2119    -8.0893    -3.6685 H       
  46 H46           -2.6901    -6.0427    -2.3888 H       
  47 H47           -1.8072    -9.7775    -4.7098 H       
  48 H48           -1.2861   -12.8683    -5.4284 H       
  49 H49           -1.2489   -11.6922    -6.7680 H       
  50 H50            0.1753   -13.7739    -7.1463 H       
  51 H51            1.0598   -12.2358    -7.2764 H       
  52 H52            0.9159   -13.8523    -4.7002 H       
  53 H53            2.2137   -14.0557    -5.8997 H       
  54 H54            2.7616   -12.4388    -4.0064 H       
  55 H55            2.9101   -11.7411    -5.6405 H       
  56 H56           -0.7914     3.8940     1.0635 H       
  57 H57           -0.8456     3.9345    -0.7152 H       
  58 H58           -2.3591     3.9321     0.2215 H       
@<TRIPOS>BOND
   1    1    2 1
   2    1    8 2
   3    1    9 1
   4    2    3 ar
   5    2    7 ar
   6    3    4 ar
   7    3   31 1
   8    4    5 ar
   9    4   32 1
  10    5    6 ar
  11    5   10 1
  12    6    7 ar
  13    6   33 1
  14    7   34 1
  15    9   30 1
  16   10   11 1
  17   10   14 1
  18   10   35 1
  19   11   12 1
  20   11   36 1
  21   11   37 1
  22   12   13 1
  23   12   38 1
  24   12   39 1
  25   13   40 1
  26   13   41 1
  27   13   42 1
  28   14   15 1
  29   15   16 ar
  30   15   20 ar
  31   16   17 ar
  32   16   43 1
  33   17   18 ar
  34   17   44 1
  35   18   19 ar
  36   18   22 1
  37   19   20 ar
  38   19   45 1
  39   20   46 1
  40   21   22 1
  41   21   29 2
  42   22   23 1
  43   23   24 2
  44   23   47 1
  45   24   25 1
  46   24   29 1
  47   25   26 1
  48   25   48 1
  49   25   49 1
  50   26   27 1
  51   26   50 1
  52   26   51 1
  53   27   28 1
  54   27   52 1
  55   27   53 1
  56   28   29 1
  57   28   54 1
  58   28   55 1
  59   30   56 1
  60   30   57 1
  61   30   58 1

#	End of record

