#	Name: ASD01948253
#	Creating user name:	WinNT
#	Creation time:	15. 06. 2019 20:14

#	Modifying user name:	WinNT
#	Modification time:	15. 06. 2019 20:14

#	Program:	/corina/corina34_cracker 3.40 0067  02.08.2006

@<TRIPOS>MOLECULE
ASD01948253
  55   60    0    0    0
SMALL
NO_CHARGES


@<TRIPOS>ATOM
   1 C1            -0.0167     1.3794     0.0096 C.ar    
   2 C2             0.0021    -0.0041     0.0020 C.ar    
   3 C3             1.2073    -0.6821    -0.0127 C.ar    
   4 C4             2.3974     0.0199    -0.0204 C.ar    
   5 C5             2.3836     1.4074    -0.0132 C.ar    
   6 C6             1.1707     2.0877     0.0021 C.ar    
   7 C7             4.0363     2.4123    -2.5224 C.ar    
   8 C8             4.2823     2.5439    -1.1566 C.ar    
   9 N9             3.5899     2.1219    -0.0205 N.am    
  10 C10            4.9160     2.9430    -3.4409 C.ar    
  11 C11            6.0623     3.6175    -3.0030 C.ar    
  12 C12            6.3118     3.7515    -1.6311 C.ar    
  13 C13            5.4188     3.2125    -0.7099 C.ar    
  14 N14            5.3863     3.1782     0.6846 N.am    
  15 C15            4.2773     2.5178     1.0670 C.2     
  16 O16            3.9467     2.3105     2.2198 O.2     
  17 I17           -1.7991    -1.0739     0.0135 I       
  18 F18            4.6727     2.8122    -4.7634 F       
  19 F19            1.1528     3.4386     0.0091 F       
  20 F20            2.9338     1.7572    -2.9473 F       
  21 O21            7.4723     4.4367    -1.5225 O.3     
  22 C22            7.9138     4.7102    -2.7605 C.2     
  23 N23            7.0920     4.2333    -3.6460 N.2     
  24 S24            6.5187     3.8380     1.6968 S.o2    
  25 C25            5.9331     5.5297     1.9897 C.3     
  26 O26            6.4208     3.0638     2.8844 O.2     
  27 O27            7.7127     3.8500     0.9265 O.2     
  28 C28            6.8341     6.4575     2.8073 C.3     
  29 C29            6.6871     6.6678     1.2990 C.3     
  30 C30            6.1533     7.4693     3.7313 C.3     
  31 O31            7.1449     8.1612     4.4929 O.3     
  32 C32            6.6118     9.1349     5.3929 C.3     
  33 C33            7.7396     9.7992     6.1397 C.ar    
  34 C34            8.3331    10.9371     5.6260 C.ar    
  35 C35            9.3676    11.5465     6.3110 C.ar    
  36 C36            9.8084    11.0183     7.5100 C.ar    
  37 C37            9.2143     9.8809     8.0242 C.ar    
  38 C38            8.1769     9.2740     7.3413 C.ar    
  39 H39           -0.9594     1.9063     0.0170 H       
  40 H40            1.2183    -1.7621    -0.0179 H       
  41 H41            3.3379    -0.5111    -0.0315 H       
  42 H42            8.8216     5.2494    -2.9874 H       
  43 H43            4.8555     5.6399     2.1104 H       
  44 H44            7.7786     6.0513     3.1692 H       
  45 H45            7.5350     6.4000     0.6686 H       
  46 H46            6.1055     7.5270     0.9649 H       
  47 H47            5.5893     8.1852     3.1335 H       
  48 H48            5.4760     6.9464     4.4065 H       
  49 H49            6.0573     9.8853     4.8295 H       
  50 H50            5.9441     8.6465     6.1026 H       
  51 H51            7.9887    11.3499     4.6893 H       
  52 H52            9.8317    12.4351     5.9093 H       
  53 H53           10.6171    11.4940     8.0449 H       
  54 H54            9.5589     9.4680     8.9608 H       
  55 H55            7.7128     8.3854     7.7430 H       
@<TRIPOS>BOND
   1    1    2 ar
   2    1    6 ar
   3    1   39 1
   4    2    3 ar
   5    2   17 1
   6    3    4 ar
   7    3   40 1
   8    4    5 ar
   9    4   41 1
  10    5    6 ar
  11    5    9 1
  12    6   19 1
  13    7    8 ar
  14    7   10 ar
  15    7   20 1
  16    8    9 1
  17    8   13 ar
  18    9   15 am
  19   10   11 ar
  20   10   18 1
  21   11   12 ar
  22   11   23 1
  23   12   13 ar
  24   12   21 1
  25   13   14 1
  26   14   24 am
  27   14   15 am
  28   15   16 2
  29   21   22 1
  30   22   23 2
  31   22   42 1
  32   24   25 1
  33   24   26 2
  34   24   27 2
  35   25   28 1
  36   25   29 1
  37   25   43 1
  38   28   29 1
  39   28   30 1
  40   28   44 1
  41   29   45 1
  42   29   46 1
  43   30   31 1
  44   30   47 1
  45   30   48 1
  46   31   32 1
  47   32   33 1
  48   32   49 1
  49   32   50 1
  50   33   34 ar
  51   33   38 ar
  52   34   35 ar
  53   34   51 1
  54   35   36 ar
  55   35   52 1
  56   36   37 ar
  57   36   53 1
  58   37   38 ar
  59   37   54 1
  60   38   55 1

#	End of record

