#	Name: ASD02560172
#	Creating user name:	WinNT
#	Creation time:	15. 06. 2019 20:24

#	Modifying user name:	WinNT
#	Modification time:	15. 06. 2019 20:24

#	Program:	/corina/corina34_cracker 3.40 0067  02.08.2006

@<TRIPOS>MOLECULE
ASD02560172
  59   62    0    0    0
SMALL
NO_CHARGES


@<TRIPOS>ATOM
   1 Br1            1.9585     2.5310    -1.6832 Br      
   2 N2             0.0637     1.3545     0.0657 N.2     
   3 N3            -0.0023     0.1241    -0.0174 N.2     
   4 C4             1.4591     1.8121     0.0772 C.3     
   5 N5             2.2538     0.5958     0.3833 N.3     
   6 C6             1.3364    -0.4770    -0.0773 C.3     
   7 S7             1.4351    -1.9109     1.0294 S.3     
   8 C8             0.9376    -1.2239     2.6328 C.3     
   9 C9             0.9692    -2.3106     3.6765 C.2     
  10 O10            1.2952    -3.4376     3.3689 O.2     
  11 N11            0.6351    -2.0301     4.9517 N.am    
  12 C12            3.4463     0.5809    -0.3437 C.ar    
  13 C13            0.5849    -3.0550     5.9037 C.ar    
  14 C14           -0.2388    -2.9323     7.0166 C.ar    
  15 C15           -0.2861    -3.9465     7.9540 C.ar    
  16 C16            0.4851    -5.0821     7.7854 C.ar    
  17 C17            1.3052    -5.2067     6.6794 C.ar    
  18 C18            1.3532    -4.1988     5.7356 C.ar    
  19 Cl19          -1.2065    -1.5067     7.2288 Cl      
  20 S20            0.4225    -6.3729     8.9832 S.o2    
  21 O21            1.6446    -7.0885     8.8660 O.2     
  22 O22           -0.0145    -5.7744    10.1956 O.2     
  23 C23            4.6645     0.7358     0.3188 C.ar    
  24 C24            3.4131     0.4066    -1.7188 C.ar    
  25 C25            4.5935     0.3922    -2.4352 C.ar    
  26 C26            5.7975     0.5484    -1.7787 C.ar    
  27 C27            5.8373     0.7151    -0.4000 C.ar    
  28 C28            4.6316     0.9290     1.8122 C.3     
  29 N29           -0.7766    -7.4158     8.5177 N.am    
  30 C30            7.0831     0.5314    -2.5650 C.3     
  31 C31            7.1884     0.8662     0.2490 C.3     
  32 C32            7.0486     1.4645     1.6473 C.3     
  33 C33            6.0041     0.6482     2.4207 C.3     
  34 C34            7.6720    -0.8806    -2.5490 C.3     
  35 H35            1.6051     2.5656     0.8512 H       
  36 H36            1.5762    -0.7684    -1.0999 H       
  37 H37            1.6259    -0.4277     2.9164 H       
  38 H38           -0.0726    -0.8213     2.5579 H       
  39 H39            0.4294    -1.1179     5.2098 H       
  40 H40           -0.9255    -3.8520     8.8192 H       
  41 H41            1.9063    -6.0947     6.5511 H       
  42 H42            1.9943    -4.2971     4.8720 H       
  43 H43            2.4684     0.2824    -2.2273 H       
  44 H44            4.5747     0.2585    -3.5067 H       
  45 H45            4.3428     1.9560     2.0355 H       
  46 H46            3.8998     0.2479     2.2467 H       
  47 H47           -1.2851    -7.2410     7.7104 H       
  48 H48           -0.9705    -8.2016     9.0524 H       
  49 H49            6.8835     0.8302    -3.5941 H       
  50 H50            7.7928     1.2262    -2.1160 H       
  51 H51            7.6632    -0.1122     0.3226 H       
  52 H52            7.8093     1.5214    -0.3619 H       
  53 H53            8.0074     1.4186     2.1637 H       
  54 H54            6.7211     2.5014     1.5718 H       
  55 H55            6.0078     0.9466     3.4691 H       
  56 H56            6.2351    -0.4140     2.3401 H       
  57 H57            8.6018    -0.8929    -3.1177 H       
  58 H58            7.8716    -1.1794    -1.5199 H       
  59 H59            6.9623    -1.5754    -2.9979 H       
@<TRIPOS>BOND
   1    1    4 1
   2    2    3 2
   3    2    4 1
   4    3    6 1
   5    4    5 1
   6    4   35 1
   7    5    6 1
   8    5   12 1
   9    6    7 1
  10    6   36 1
  11    7    8 1
  12    8    9 1
  13    8   37 1
  14    8   38 1
  15    9   10 2
  16    9   11 am
  17   11   13 1
  18   11   39 1
  19   12   23 ar
  20   12   24 ar
  21   13   14 ar
  22   13   18 ar
  23   14   15 ar
  24   14   19 1
  25   15   16 ar
  26   15   40 1
  27   16   17 ar
  28   16   20 1
  29   17   18 ar
  30   17   41 1
  31   18   42 1
  32   20   21 2
  33   20   22 2
  34   20   29 am
  35   23   27 ar
  36   23   28 1
  37   24   25 ar
  38   24   43 1
  39   25   26 ar
  40   25   44 1
  41   26   27 ar
  42   26   30 1
  43   27   31 1
  44   28   33 1
  45   28   45 1
  46   28   46 1
  47   29   47 1
  48   29   48 1
  49   30   34 1
  50   30   49 1
  51   30   50 1
  52   31   32 1
  53   31   51 1
  54   31   52 1
  55   32   33 1
  56   32   53 1
  57   32   54 1
  58   33   55 1
  59   33   56 1
  60   34   57 1
  61   34   58 1
  62   34   59 1

#	End of record

