#	Name: ASD08150259
#	Creating user name:	WinNT
#	Creation time:	15. 06. 2019 21:15

#	Modifying user name:	WinNT
#	Modification time:	15. 06. 2019 21:15

#	Program:	/corina/corina34_cracker 3.40 0067  02.08.2006

@<TRIPOS>MOLECULE
ASD08150259
  46   50    0    0    0
SMALL
NO_CHARGES


@<TRIPOS>ATOM
   1 N1            -0.0155     1.2942     0.0092 N.2     
   2 C2             0.0021    -0.0041     0.0020 C.2     
   3 N3             1.1491    -0.7357    -0.0129 N.am    
   4 C4             2.3562    -0.1239    -0.0206 C.2     
   5 C5             2.3708     1.3432    -0.0129 C.ar    
   6 C6             3.5654     2.0712    -0.0199 C.ar    
   7 C7             3.5174     3.4551    -0.0121 C.ar    
   8 C8             2.2993     4.1167     0.0025 C.ar    
   9 C9             1.1127     3.4156     0.0101 C.ar    
  10 C10            1.1305     2.0205     0.0021 C.ar    
  11 O11            3.3905    -0.7663    -0.0331 O.2     
  12 C12           -1.3144    -0.7375     0.0112 C.3     
  13 S13           -2.6718     0.4595     0.0311 S.3     
  14 N14           -5.9167     1.0923     0.0666 N.2     
  15 C15           -7.2139     0.9876     0.0790 C.2     
  16 N16           -7.5748    -0.3270     0.0762 N.pl3   
  17 C17           -6.4215    -1.0700     0.0611 C.ar    
  18 N18           -6.1424    -2.3695     0.0516 N.ar    
  19 C19           -4.8941    -2.7879     0.0367 C.ar    
  20 N20           -3.8681    -1.9572     0.0300 N.ar    
  21 C21           -4.0490    -0.6396     0.0389 C.ar    
  22 C22           -5.3645    -0.1444     0.0551 C.ar    
  23 O23            4.7597     1.4274    -0.0338 O.3     
  24 C24            5.9349     2.2404    -0.0402 C.3     
  25 C25            1.0800    -2.1349    -0.0197 C.ar    
  26 C26            1.0571    -2.8371     1.1796 C.ar    
  27 C27            0.9889    -4.2173     1.1688 C.ar    
  28 C28            0.9439    -4.8992    -0.0336 C.ar    
  29 C29            0.9666    -4.2031    -1.2279 C.ar    
  30 C30            1.0285    -2.8229    -1.2242 C.ar    
  31 Cl31           1.1146    -1.9814     2.6889 Cl      
  32 H32            4.4358     4.0233    -0.0171 H       
  33 H33            2.2798     5.1965     0.0084 H       
  34 H34            0.1713     3.9449     0.0222 H       
  35 H35           -1.3905    -1.3584    -0.8814 H       
  36 H36           -1.3729    -1.3680     0.8984 H       
  37 H37           -7.9027     1.8193     0.0899 H       
  38 H38           -8.4808    -0.6735     0.0835 H       
  39 H39           -4.7023    -3.8507     0.0297 H       
  40 H40            5.9334     2.8741    -0.9270 H       
  41 H41            5.9493     2.8652     0.8528 H       
  42 H42            6.8183     1.6020    -0.0513 H       
  43 H43            0.9710    -4.7639     2.1000 H       
  44 H44            0.8914    -5.9779    -0.0396 H       
  45 H45            0.9314    -4.7388    -2.1651 H       
  46 H46            1.0413    -2.2800    -2.1577 H       
@<TRIPOS>BOND
   1    1    2 2
   2    1   10 1
   3    2    3 1
   4    2   12 1
   5    3    4 am
   6    3   25 1
   7    4    5 1
   8    4   11 2
   9    5    6 ar
  10    5   10 ar
  11    6    7 ar
  12    6   23 1
  13    7    8 ar
  14    7   32 1
  15    8    9 ar
  16    8   33 1
  17    9   10 ar
  18    9   34 1
  19   12   13 1
  20   12   35 1
  21   12   36 1
  22   13   21 1
  23   14   15 2
  24   14   22 1
  25   15   16 1
  26   15   37 1
  27   16   17 1
  28   16   38 1
  29   17   18 ar
  30   17   22 ar
  31   18   19 ar
  32   19   20 ar
  33   19   39 1
  34   20   21 ar
  35   21   22 ar
  36   23   24 1
  37   24   40 1
  38   24   41 1
  39   24   42 1
  40   25   26 ar
  41   25   30 ar
  42   26   27 ar
  43   26   31 1
  44   27   28 ar
  45   27   43 1
  46   28   29 ar
  47   28   44 1
  48   29   30 ar
  49   29   45 1
  50   30   46 1

#	End of record

