#	Name: ASD00069159
#	Creating user name:	WinNT
#	Creation time:	15. 06. 2019 18:29

#	Modifying user name:	WinNT
#	Modification time:	15. 06. 2019 18:29

#	Program:	/corina/corina34_cracker 3.40 0067  02.08.2006

@<TRIPOS>MOLECULE
ASD00069159
  58   61    0    0    0
SMALL
NO_CHARGES


@<TRIPOS>ATOM
   1 C1            -0.0636     1.2949    -0.5906 C.2     
   2 N2            -0.0207     0.0043    -0.3449 N.2     
   3 C3             1.2317    -0.4330    -0.5270 C.2     
   4 C4             2.0014     0.6329    -0.9025 C.2     
   5 N5             1.1900     1.7131    -0.9420 N.pl3   
   6 C6            -1.2636     2.1474    -0.5075 C.2     
   7 O7            -1.1846     3.3348    -0.7589 O.2     
   8 N8            -2.4481     1.6110    -0.1530 N.am    
   9 C9             1.2977    -4.1251     0.1885 C.ar    
  10 C10            0.8188    -2.8402     0.0374 C.ar    
  11 C11            1.7017    -1.8288    -0.3516 C.ar    
  12 C12            3.0400    -2.1689    -0.5713 C.ar    
  13 C13            3.4347    -3.4788    -0.3972 C.ar    
  14 N14            2.5688    -4.4040    -0.0289 N.ar    
  15 C15            0.3577    -5.2237     0.6136 C.3     
  16 C16           -3.5620     2.4379     0.0384 C.ar    
  17 C17           -4.8463     1.8957     0.0209 C.ar    
  18 C18           -5.9464     2.7212     0.2113 C.ar    
  19 C19           -5.7650     4.0779     0.4177 C.ar    
  20 C20           -4.4907     4.6142     0.4343 C.ar    
  21 C21           -3.3901     3.7979     0.2517 C.ar    
  22 F22           -7.1930     2.2008     0.1947 F       
  23 N23           -5.0263     0.5224    -0.1887 N.3     
  24 C24           -5.7498     0.2717    -1.4417 C.3     
  25 C25           -5.8005    -1.2340    -1.7105 C.3     
  26 C26           -6.5050    -1.9324    -0.5441 C.3     
  27 C27           -5.7596    -1.6157     0.7554 C.3     
  28 C28           -5.7101    -0.0989     0.9527 C.3     
  29 C29           -7.9464    -1.4295    -0.4424 C.3     
  30 C30           -6.5049    -3.4444    -0.7781 C.3     
  31 N31           -7.1810    -4.1132     0.3415 N.3     
  32 H32            3.0581     0.6150    -1.1250 H       
  33 H33            1.4491     2.6179    -1.1768 H       
  34 H34           -2.5290     0.6522    -0.0305 H       
  35 H35           -0.2231    -2.6190     0.2167 H       
  36 H36            3.7540    -1.4169    -0.8732 H       
  37 H37            4.4663    -3.7512    -0.5649 H       
  38 H38           -0.0850    -5.6849    -0.2692 H       
  39 H39            0.9091    -5.9753     1.1784 H       
  40 H40           -0.4309    -4.8053     1.2390 H       
  41 H41           -6.6212     4.7194     0.5657 H       
  42 H42           -4.3544     5.6734     0.5954 H       
  43 H43           -2.3961     4.2199     0.2702 H       
  44 H44           -6.7649     0.6602    -1.3590 H       
  45 H45           -5.2361     0.7703    -2.2637 H       
  46 H46           -6.3510    -1.4208    -2.6326 H       
  47 H47           -4.7860    -1.6208    -1.8071 H       
  48 H48           -6.2810    -2.0751     1.5952 H       
  49 H49           -4.7445    -2.0085     0.6977 H       
  50 H50           -5.1676     0.1305     1.8699 H       
  51 H51           -6.7254     0.2913     1.0242 H       
  52 H52           -8.4746    -1.6503    -1.3699 H       
  53 H53           -8.4471    -1.9271     0.3882 H       
  54 H54           -7.9444    -0.3527    -0.2729 H       
  55 H55           -7.0308    -3.6684    -1.7062 H       
  56 H56           -5.4774    -3.8013    -0.8475 H       
  57 H57           -8.1150    -3.7527     0.4673 H       
  58 H58           -7.1941    -5.1135     0.2105 H       
@<TRIPOS>BOND
   1    1    2 2
   2    1    5 1
   3    1    6 1
   4    2    3 1
   5    3    4 2
   6    3   11 1
   7    4    5 1
   8    4   32 1
   9    5   33 1
  10    6    7 2
  11    6    8 am
  12    8   16 1
  13    8   34 1
  14    9   10 ar
  15    9   14 ar
  16    9   15 1
  17   10   11 ar
  18   10   35 1
  19   11   12 ar
  20   12   13 ar
  21   12   36 1
  22   13   14 ar
  23   13   37 1
  24   15   38 1
  25   15   39 1
  26   15   40 1
  27   16   17 ar
  28   16   21 ar
  29   17   18 ar
  30   17   23 1
  31   18   19 ar
  32   18   22 1
  33   19   20 ar
  34   19   41 1
  35   20   21 ar
  36   20   42 1
  37   21   43 1
  38   23   24 1
  39   23   28 1
  40   24   25 1
  41   24   44 1
  42   24   45 1
  43   25   26 1
  44   25   46 1
  45   25   47 1
  46   26   27 1
  47   26   29 1
  48   26   30 1
  49   27   28 1
  50   27   48 1
  51   27   49 1
  52   28   50 1
  53   28   51 1
  54   29   52 1
  55   29   53 1
  56   29   54 1
  57   30   31 1
  58   30   55 1
  59   30   56 1
  60   31   57 1
  61   31   58 1

#	End of record

