#	Name: ASD03091887
#	Creating user name:	WinNT
#	Creation time:	15. 06. 2019 20:31

#	Modifying user name:	WinNT
#	Modification time:	15. 06. 2019 20:31

#	Program:	/corina/corina34_cracker 3.40 0067  02.08.2006

@<TRIPOS>MOLECULE
ASD03091887
  50   53    0    0    0
SMALL
NO_CHARGES


@<TRIPOS>ATOM
   1 C1             0.6477     2.8102    -0.4864 C.ar    
   2 C2             0.2387     1.4938    -0.3801 C.ar    
   3 C3             1.1727     0.4856    -0.2540 C.ar    
   4 C4             2.5292     0.7848    -0.2318 C.ar    
   5 C5             2.9353     2.1212    -0.3246 C.ar    
   6 C6             1.9955     3.1195    -0.4586 C.ar    
   7 N7             3.4595    -0.2573    -0.1383 N.pl3   
   8 C8             4.9125     0.0145    -0.0847 C.3     
   9 C9             5.1346     1.2332    -0.9623 C.3     
  10 C10            4.3857     2.3999    -0.2515 C.3     
  11 C11            6.5364     1.8579    -0.9500 C.3     
  12 C12            6.2225     3.3248    -1.2504 C.2     
  13 C13            4.9854     3.6130    -0.8637 C.2     
  14 C14            5.3349     0.3091     1.3315 C.ar    
  15 S15           -0.5473     4.0928    -0.6644 S.o2    
  16 O16            0.1224     5.1820    -1.2843 O.2     
  17 O17           -1.7107     3.4846    -1.2083 O.2     
  18 N18           -0.9533     4.5994     0.8591 N.am    
  19 C19            4.4208     0.8214     2.2331 C.ar    
  20 C20            4.8083     1.0916     3.5322 C.ar    
  21 C21            6.1098     0.8491     3.9299 C.ar    
  22 C22            7.0237     0.3360     3.0286 C.ar    
  23 C23            6.6351     0.0617     1.7306 C.ar    
  24 C24            6.5325     1.1447     5.3459 C.3     
  25 C25            6.3070    -0.0944     6.2146 C.3     
  26 C26            6.7362     0.2056     7.6522 C.3     
  27 Br27           6.4465    -1.3866     8.7684 Br      
  28 H28           -0.8142     1.2538    -0.3955 H       
  29 H29            0.8474    -0.5410    -0.1718 H       
  30 H30            2.3126     4.1485    -0.5424 H       
  31 H31            3.1454    -1.1745    -0.1077 H       
  32 H32            5.4693    -0.8372    -0.4755 H       
  33 H33            4.7821     1.0611    -1.9792 H       
  34 H34            4.6797     2.3881     0.7980 H       
  35 H35            7.0031     1.7509     0.0292 H       
  36 H36            7.1637     1.4251    -1.7293 H       
  37 H37            6.9065     4.0232    -1.7096 H       
  38 H38            4.4967     4.5695    -0.9759 H       
  39 H39           -0.5396     4.1872     1.6336 H       
  40 H40           -1.6048     5.3083     0.9769 H       
  41 H41            3.4039     1.0108     1.9224 H       
  42 H42            4.0943     1.4925     4.2364 H       
  43 H43            8.0406     0.1468     3.3392 H       
  44 H44            7.3481    -0.3427     1.0275 H       
  45 H45            7.5891     1.4119     5.3613 H       
  46 H46            5.9422     1.9740     5.7356 H       
  47 H47            5.2504    -0.3616     6.1991 H       
  48 H48            6.8973    -0.9237     5.8248 H       
  49 H49            7.7928     0.4729     7.6677 H       
  50 H50            6.1459     1.0350     8.0420 H       
@<TRIPOS>BOND
   1    1    2 ar
   2    1    6 ar
   3    1   15 1
   4    2    3 ar
   5    2   28 1
   6    3    4 ar
   7    3   29 1
   8    4    5 ar
   9    4    7 1
  10    5    6 ar
  11    5   10 1
  12    6   30 1
  13    7    8 1
  14    7   31 1
  15    8    9 1
  16    8   14 1
  17    8   32 1
  18    9   11 1
  19    9   10 1
  20    9   33 1
  21   10   13 1
  22   10   34 1
  23   11   12 1
  24   11   35 1
  25   11   36 1
  26   12   13 2
  27   12   37 1
  28   13   38 1
  29   14   19 ar
  30   14   23 ar
  31   15   16 2
  32   15   17 2
  33   15   18 am
  34   18   39 1
  35   18   40 1
  36   19   20 ar
  37   19   41 1
  38   20   21 ar
  39   20   42 1
  40   21   22 ar
  41   21   24 1
  42   22   23 ar
  43   22   43 1
  44   23   44 1
  45   24   25 1
  46   24   45 1
  47   24   46 1
  48   25   26 1
  49   25   47 1
  50   25   48 1
  51   26   27 1
  52   26   49 1
  53   26   50 1

#	End of record

