#	Name: ASD06600077
#	Creating user name:	WinNT
#	Creation time:	15. 06. 2019 21:07

#	Modifying user name:	WinNT
#	Modification time:	15. 06. 2019 21:07

#	Program:	/corina/corina34_cracker 3.40 0067  02.08.2006

@<TRIPOS>MOLECULE
ASD06600077
 304  304    0    0    0
SMALL
NO_CHARGES


@<TRIPOS>ATOM
   1 C1            -5.8299     0.8236     6.4779 C.2     
   2 O2            -5.9065    -0.3861     6.4366 O.2     
   3 N3            -3.5591     0.4543     7.2499 N.am    
   4 C4            -4.5502     1.4827     6.9239 C.3     
   5 C5            -8.8949     1.8828     4.7906 C.2     
   6 O6            -8.4469     2.9833     4.5472 O.2     
   7 N7            -6.8875     1.5784     6.1198 N.am    
   8 C8            -8.1296     0.9377     5.6806 C.3     
   9 C9            -8.9811     0.5850     6.9018 C.3     
  10 C10           -8.2567    -0.4692     7.7413 C.3     
  11 C11           -9.1082    -0.8219     8.9626 C.3     
  12 N12           -8.4147    -1.8314     9.7664 N.pl3   
  13 C13           -8.9913    -2.3061    10.9207 C.2     
  14 N14          -10.1552    -1.8580    11.2998 N.2     
  15 N15           -8.3405    -3.2534    11.6750 N.pl3   
  16 C16          -12.3322     2.0969     3.5916 C.2     
  17 O17          -12.6580     0.9442     3.7813 O.2     
  18 N18          -10.0771     1.5052     4.2651 N.am    
  19 C19          -10.8733     2.4607     3.4909 C.3     
  20 C20          -10.4370     2.4184     2.0250 C.3     
  21 C21          -11.1576     3.5209     1.2464 C.3     
  22 C22          -10.6924     4.8885     1.7504 C.3     
  23 C23          -10.8331     3.3889    -0.2429 C.3     
  24 C24          -15.4857     3.7397     2.7432 C.2     
  25 O25          -14.9210     4.7012     2.2662 O.2     
  26 N26          -13.2749     3.0525     3.4707 N.am    
  27 C27          -14.6935     2.6866     3.4743 C.3     
  28 C28          -15.1904     2.5850     4.9177 C.3     
  29 C29          -14.4734     1.4326     5.6240 C.3     
  30 C30          -14.9703     1.3310     7.0675 C.3     
  31 N31          -14.2838     0.2276     7.7438 N.pl3   
  32 C32          -14.5690    -0.0570     9.0582 C.2     
  33 N33          -15.4503     0.6550     9.7027 N.2     
  34 N34          -13.9247    -1.0925     9.6929 N.pl3   
  35 C35          -19.0153     4.6285     2.4039 C.2     
  36 O36          -19.3531     3.8446     3.2654 O.2     
  37 N37          -16.8218     3.6130     2.6195 N.am    
  38 C38          -17.5919     4.6368     1.9088 C.3     
  39 C39          -17.5722     4.3397     0.4081 C.3     
  40 C40          -16.1418     4.4706    -0.1190 C.3     
  41 C41          -16.1224     4.1780    -1.5971 C.2     
  42 O42          -17.1512     3.8928    -2.1725 O.2     
  43 N43          -14.9616     4.2332    -2.2798 N.am    
  44 C44          -22.2034     6.0365     1.3011 C.2     
  45 O45          -21.7397     6.4011     0.2414 O.2     
  46 N46          -19.9128     5.4922     1.8891 N.am    
  47 C47          -21.2965     5.4841     2.3704 C.3     
  48 C48          -21.4043     6.3494     3.6275 C.3     
  49 C49          -25.6557     7.2250     1.1208 C.2     
  50 O50          -25.7925     7.1815     2.3251 O.2     
  51 N51          -23.5299     6.1255     1.5224 N.am    
  52 C52          -24.4116     6.6625     0.4829 C.3     
  53 C53          -24.7969     5.5437    -0.4870 C.3     
  54 C54          -23.5488     5.0574    -1.2264 C.3     
  55 C55          -23.9284     3.9554    -2.1817 C.2     
  56 O56          -25.0834     3.5946    -2.2632 O.2     
  57 N57          -22.9843     3.3709    -2.9456 N.am    
  58 C58          -28.9542     8.3060    -0.0258 C.2     
  59 O59          -28.7665     7.8791    -1.1454 O.2     
  60 N60          -26.6164     7.7763     0.3529 N.am    
  61 C61          -27.8259     8.3231     0.9730 C.3     
  62 C62          -27.5632     9.7622     1.4212 C.3     
  63 C63          -26.5044     9.7672     2.5256 C.3     
  64 C64          -26.2418    11.2063     2.9738 C.3     
  65 N65          -25.2279    11.2112     4.0313 N.pl3   
  66 C66          -24.8268    12.3999     4.5935 C.2     
  67 N67          -23.9247    12.4042     5.5344 N.2     
  68 N68          -25.3770    13.5841     4.1634 N.pl3   
  69 C69          -32.2769     9.8080    -0.2830 C.2     
  70 O70          -32.3293    10.2319     0.8521 O.2     
  71 N71          -30.1718     8.7651     0.3250 N.am    
  72 C72          -31.2687     8.7485    -0.6460 C.3     
  73 C73          -31.9434     7.3754    -0.6297 C.3     
  74 C74          -30.9582     6.3170    -1.1296 C.3     
  75 C75          -31.6329     4.9439    -1.1134 C.3     
  76 N76          -30.6896     3.9305    -1.5921 N.pl3   
  77 C77          -31.0749     2.6128    -1.6657 C.2     
  78 N78          -30.2356     1.7112    -2.0916 N.2     
  79 N79          -32.3456     2.2462    -1.2901 N.pl3   
  80 C80          -35.1914    10.6552     0.0105 C.2     
  81 O81          -34.9966     9.5538     0.4792 O.2     
  82 N82          -33.1205    10.2846    -1.2198 N.am    
  83 C83          -34.2167    11.2350    -0.9819 C.3     
  84 C84          -34.9218    11.4692    -2.3346 C.3     
  85 C85          -34.5398    10.2050    -3.1490 C.3     
  86 C86          -33.0929     9.9442    -2.6540 C.3     
  87 C87          -38.5835    11.4215     1.1374 C.2     
  88 O88          -38.7429    12.2552     0.2711 O.2     
  89 N89          -36.2797    11.3607     0.3771 N.am    
  90 C90          -37.2272    10.7971     1.3418 C.3     
  91 C91          -36.7412    11.0873     2.7632 C.3     
  92 C92          -35.4236    10.3504     3.0121 C.3     
  93 C93          -34.9449    10.6363     4.4122 C.2     
  94 O94          -35.5936    11.3583     5.1393 O.2     
  95 N95          -33.7958    10.0896     4.8562 N.am    
  96 C96          -41.7229    11.5878     3.0027 C.2     
  97 O97          -41.2298    11.0791     3.9870 O.2     
  98 N98          -39.6193    11.0534     1.9172 N.am    
  99 C99          -40.9377    11.6605     1.7185 C.3     
 100 C100         -41.6868    10.9045     0.6192 C.3     
 101 C101         -40.9543    11.0825    -0.7122 C.3     
 102 C102         -41.7034    10.3265    -1.8114 C.3     
 103 N103         -41.0021    10.4970    -3.0863 N.pl3   
 104 C104         -41.4928     9.9041    -4.2255 C.2     
 105 N105         -42.5820     9.1902    -4.1712 N.2     
 106 N106         -40.8346    10.0641    -5.4219 N.pl3   
 107 C107         -45.2109    12.0477     3.9955 C.2     
 108 O108         -45.5870    12.1210     2.8448 O.2     
 109 N109         -42.9732    12.0882     3.0573 N.am    
 110 C110         -43.7365    12.0176     4.3058 C.3     
 111 C111         -43.3772    13.2122     5.1915 C.3     
 112 C112         -41.9085    13.1141     5.6090 C.3     
 113 C113         -41.5546    14.2908     6.4814 C.2     
 114 O114         -42.3943    15.1257     6.7435 O.2     
 115 N115         -40.3048    14.4154     6.9704 N.am    
 116 C116         -47.9999    13.4526     4.5571 C.2     
 117 O117         -47.2083    14.3547     4.6965 O.2     
 118 N118         -46.1115    11.9933     4.9967 N.am    
 119 C119         -47.5448    12.0226     4.6950 C.3     
 120 C120         -48.3187    11.3483     5.8296 C.3     
 121 C121         -47.9478     9.8651     5.8888 C.3     
 122 C122         -48.7216     9.1907     7.0234 C.3     
 123 C123         -48.3507     7.7076     7.0825 C.3     
 124 N124         -49.0937     7.0601     8.1719 N.3     
 125 O125         -49.2848    13.7242     4.2794 O.3     
 126 C126          -2.3310     0.8125     7.6744 C.2     
 127 O127          -2.0465     1.9861     7.7864 O.2     
 128 C128          15.0291    -3.0790    13.5625 C.3     
 129 C129          13.9940    -2.0049    13.2220 C.3     
 130 C130          12.6948    -2.6742    12.7692 C.3     
 131 C131          11.6596    -1.6002    12.4287 C.3     
 132 C132          10.3604    -2.2694    11.9760 C.3     
 133 C133           9.3253    -1.1954    11.6355 C.3     
 134 C134           8.0260    -1.8646    11.1828 C.3     
 135 C135           6.9909    -0.7906    10.8422 C.3     
 136 C136           5.6916    -1.4598    10.3895 C.3     
 137 C137           4.6565    -0.3858    10.0490 C.3     
 138 C138           3.3573    -1.0550     9.5963 C.3     
 139 C139           2.3221     0.0190     9.2557 C.3     
 140 C140           1.0229    -0.6502     8.8030 C.3     
 141 C141          -0.0122     0.4238     8.4625 C.3     
 142 C142          -1.3115    -0.2454     8.0098 C.3     
 143 H143          -3.7866    -0.4843     7.1603 H       
 144 H144          -4.1681     2.1142     6.1218 H       
 145 H145          -4.7441     2.0931     7.8059 H       
 146 H146          -6.8262     2.5459     6.1529 H       
 147 H147          -7.8935     0.0286     5.1274 H       
 148 H148          -9.1426     1.4799     7.5028 H       
 149 H149          -9.9422     0.1899     6.5728 H       
 150 H150          -8.0952    -1.3641     7.1403 H       
 151 H151          -7.2956    -0.0742     8.0704 H       
 152 H152          -9.2698     0.0730     9.5636 H       
 153 H153         -10.0694    -1.2170     8.6335 H       
 154 H154          -7.5486    -2.1648     9.4843 H       
 155 H155         -10.5620    -2.1929    12.1141 H       
 156 H156          -7.4744    -3.5869    11.3929 H       
 157 H157          -8.7473    -3.5883    12.4894 H       
 158 H158         -10.4009     0.6008     4.3995 H       
 159 H159         -10.7211     3.4650     3.8864 H       
 160 H160          -9.3600     2.5734     1.9618 H       
 161 H161         -10.6900     1.4477     1.5986 H       
 162 H162         -12.2334     3.4260     1.3937 H       
 163 H163          -9.6265     5.0046     1.5547 H       
 164 H164         -11.2444     5.6733     1.2332 H       
 165 H165         -10.8751     4.9620     2.8225 H       
 166 H166         -11.1645     2.4145    -0.6020 H       
 167 H167         -11.3465     4.1743    -0.7976 H       
 168 H168          -9.7573     3.4837    -0.3902 H       
 169 H169         -13.0142     3.9825     3.3814 H       
 170 H170         -14.8219     1.7250     2.9773 H       
 171 H171         -14.9809     3.5182     5.4406 H       
 172 H172         -16.2647     2.4004     4.9201 H       
 173 H173         -14.6828     0.4994     5.1011 H       
 174 H174         -13.3991     1.6172     5.6217 H       
 175 H175         -14.7608     2.2642     7.5904 H       
 176 H176         -16.0446     1.1464     7.0698 H       
 177 H177         -13.6279    -0.3022     7.2641 H       
 178 H178         -15.6516     0.4542    10.6302 H       
 179 H179         -13.2689    -1.6223     9.2132 H       
 180 H180         -14.1260    -1.2932    10.6203 H       
 181 H181         -17.2735     2.8440     3.0010 H       
 182 H182         -17.1495     5.6161     2.0912 H       
 183 H183         -17.9323     3.3258     0.2336 H       
 184 H184         -18.2171     5.0486    -0.1112 H       
 185 H185         -15.7817     5.4845     0.0555 H       
 186 H186         -15.4969     3.7617     0.4003 H       
 187 H187         -14.1387     4.4614    -1.8197 H       
 188 H188         -14.9491     4.0449    -3.2313 H       
 189 H189         -19.6426     6.1191     1.2000 H       
 190 H190         -21.5932     4.4622     2.6061 H       
 191 H191         -22.4338     6.3435     3.9856 H       
 192 H192         -20.7483     5.9499     4.4009 H       
 193 H193         -21.1075     7.3714     3.3918 H       
 194 H194         -23.9009     5.8340     2.3699 H       
 195 H195         -23.8932     7.4522    -0.0608 H       
 196 H196         -25.2354     4.7154     0.0695 H       
 197 H197         -25.5221     5.9215    -1.2077 H       
 198 H198         -23.1104     5.8857    -1.7829 H       
 199 H199         -22.8236     4.6797    -0.5056 H       
 200 H200         -22.0605     3.6596    -2.8804 H       
 201 H201         -23.2286     2.6617    -3.5605 H       
 202 H202         -26.5071     7.8110    -0.6103 H       
 203 H203         -28.0967     7.7170     1.8375 H       
 204 H204         -27.2068    10.3474     0.5735 H       
 205 H205         -28.4869    10.1986     1.8013 H       
 206 H206         -26.8608     9.1820     3.3733 H       
 207 H207         -25.5808     9.3308     2.1455 H       
 208 H208         -25.8854    11.7915     2.1261 H       
 209 H209         -27.1654    11.6428     3.3539 H       
 210 H210         -24.8397    10.3757     4.3348 H       
 211 H211         -23.6417    13.2429     5.9311 H       
 212 H212         -26.0483    13.5809     3.4632 H       
 213 H213         -25.0940    14.4228     4.5601 H       
 214 H214         -30.3219     9.1065     1.2205 H       
 215 H215         -30.8747     8.9479    -1.6425 H       
 216 H216         -32.2510     7.1337     0.3877 H       
 217 H217         -32.8185     7.3929    -1.2793 H       
 218 H218         -30.6506     6.5586    -2.1471 H       
 219 H219         -30.0831     6.2995    -0.4800 H       
 220 H220         -31.9405     4.7023    -0.0960 H       
 221 H221         -32.5080     4.9614    -1.7630 H       
 222 H222         -29.7930     4.1891    -1.8571 H       
 223 H223         -30.5075     0.7815    -2.1436 H       
 224 H224         -32.9703     2.9172    -0.9732 H       
 225 H225         -32.6175     1.3166    -1.3421 H       
 226 H226         -33.8165    12.1751    -0.6023 H       
 227 H227         -36.0018    11.5301    -2.2011 H       
 228 H228         -34.5405    12.3689    -2.8176 H       
 229 H229         -35.1963     9.3699    -2.9050 H       
 230 H230         -34.5535    10.4109    -4.2193 H       
 231 H231         -32.3873    10.5851    -3.1825 H       
 232 H232         -32.8293     8.8953    -2.7899 H       
 233 H233         -36.4356    12.2417     0.0022 H       
 234 H234         -37.2976     9.7193     1.1948 H       
 235 H235         -36.5859    12.1596     2.8823 H       
 236 H236         -37.4889    10.7468     3.4795 H       
 237 H237         -35.5790     9.2781     2.8931 H       
 238 H238         -34.6759    10.6910     2.2958 H       
 239 H239         -33.2770     9.5121     4.2747 H       
 240 H240         -33.4877    10.2736     5.7574 H       
 241 H241         -39.4918    10.3866     2.6100 H       
 242 H242         -40.8171    12.7032     1.4248 H       
 243 H243         -41.7297     9.8449     0.8715 H       
 244 H244         -42.6993    11.2986     0.5325 H       
 245 H245         -40.9114    12.1421    -0.9644 H       
 246 H246         -39.9418    10.6884    -0.6254 H       
 247 H247         -41.7463     9.2670    -1.5592 H       
 248 H248         -42.7159    10.7207    -1.8982 H       
 249 H249         -40.1915    11.0283    -3.1267 H       
 250 H250         -42.9282     8.7718    -4.9750 H       
 251 H251         -40.0241    10.5953    -5.4622 H       
 252 H252         -41.1809     9.6457    -6.2256 H       
 253 H253         -43.3676    12.4950     2.2701 H       
 254 H254         -43.4940    11.0921     4.8281 H       
 255 H255         -43.5362    14.1368     4.6366 H       
 256 H256         -44.0085    13.2086     6.0801 H       
 257 H257         -41.7495    12.1896     6.1639 H       
 258 H258         -41.2772    13.1177     4.7204 H       
 259 H259         -39.6332    13.7477     6.7608 H       
 260 H260         -40.0770    15.1729     7.5320 H       
 261 H261         -45.8106    11.9347     5.9170 H       
 262 H262         -47.7307    11.4906     3.7620 H       
 263 H263         -48.0639    11.8246     6.7764 H       
 264 H264         -49.3889    11.4482     5.6490 H       
 265 H265         -48.2025     9.3888     4.9420 H       
 266 H266         -46.8775     9.7651     6.0694 H       
 267 H267         -48.4669     9.6670     7.9701 H       
 268 H268         -49.7919     9.2907     6.8427 H       
 269 H269         -48.6055     7.2313     6.1358 H       
 270 H270         -47.2805     7.6076     7.2632 H       
 271 H271         -48.8660     6.0790     8.2317 H       
 272 H272         -48.9243     7.5249     9.0513 H       
 273 H273         -49.5293    14.6564     4.2005 H       
 274 H274          15.9548    -2.6022    13.8850 H       
 275 H275          14.6471    -3.7105    14.3646 H       
 276 H276          15.2230    -3.6893    12.6805 H       
 277 H277          13.8001    -1.3946    14.1040 H       
 278 H278          14.3761    -1.3734    12.4199 H       
 279 H279          12.8886    -3.2845    11.8872 H       
 280 H280          12.3127    -3.3057    13.5713 H       
 281 H281          11.4658    -0.9898    13.3107 H       
 282 H282          12.0417    -0.9686    11.6267 H       
 283 H283          10.5543    -2.8798    11.0940 H       
 284 H284           9.9783    -2.9009    12.7781 H       
 285 H285           9.1314    -0.5850    12.5175 H       
 286 H286           9.7073    -0.5638    10.8334 H       
 287 H287           8.2199    -2.4750    10.3007 H       
 288 H288           7.6439    -2.4961    11.9848 H       
 289 H289           6.7970    -0.1802    11.7243 H       
 290 H290           7.3730    -0.1590    10.0402 H       
 291 H291           5.8855    -2.0702     9.5075 H       
 292 H292           5.3096    -2.0913    11.1916 H       
 293 H293           4.4626     0.2246    10.9310 H       
 294 H294           5.0386     0.2457     9.2469 H       
 295 H295           3.5511    -1.6654     8.7142 H       
 296 H296           2.9752    -1.6865    10.3983 H       
 297 H297           2.1283     0.6294    10.1378 H       
 298 H298           2.7042     0.6505     8.4537 H       
 299 H299           1.2168    -1.2606     7.9210 H       
 300 H300           0.6408    -1.2817     9.6051 H       
 301 H301          -0.2061     1.0342     9.3445 H       
 302 H302           0.3698     1.0553     7.6604 H       
 303 H303          -1.6935    -0.8769     8.8118 H       
 304 H304          -1.1176    -0.8558     7.1278 H       
@<TRIPOS>BOND
   1    1    2 2
   2    1    4 1
   3    1    7 am
   4    3    4 1
   5    3  126 am
   6    3  143 1
   7    4  144 1
   8    4  145 1
   9    5    6 2
  10    5    8 1
  11    5   18 am
  12    7    8 1
  13    7  146 1
  14    8    9 1
  15    8  147 1
  16    9   10 1
  17    9  148 1
  18    9  149 1
  19   10   11 1
  20   10  150 1
  21   10  151 1
  22   11   12 1
  23   11  152 1
  24   11  153 1
  25   12   13 1
  26   12  154 1
  27   13   14 2
  28   13   15 1
  29   14  155 1
  30   15  156 1
  31   15  157 1
  32   16   17 2
  33   16   19 1
  34   16   26 am
  35   18   19 1
  36   18  158 1
  37   19   20 1
  38   19  159 1
  39   20   21 1
  40   20  160 1
  41   20  161 1
  42   21   22 1
  43   21   23 1
  44   21  162 1
  45   22  163 1
  46   22  164 1
  47   22  165 1
  48   23  166 1
  49   23  167 1
  50   23  168 1
  51   24   25 2
  52   24   27 1
  53   24   37 am
  54   26   27 1
  55   26  169 1
  56   27   28 1
  57   27  170 1
  58   28   29 1
  59   28  171 1
  60   28  172 1
  61   29   30 1
  62   29  173 1
  63   29  174 1
  64   30   31 1
  65   30  175 1
  66   30  176 1
  67   31   32 1
  68   31  177 1
  69   32   33 2
  70   32   34 1
  71   33  178 1
  72   34  179 1
  73   34  180 1
  74   35   36 2
  75   35   38 1
  76   35   46 am
  77   37   38 1
  78   37  181 1
  79   38   39 1
  80   38  182 1
  81   39   40 1
  82   39  183 1
  83   39  184 1
  84   40   41 1
  85   40  185 1
  86   40  186 1
  87   41   42 2
  88   41   43 am
  89   43  187 1
  90   43  188 1
  91   44   45 2
  92   44   47 1
  93   44   51 am
  94   46   47 1
  95   46  189 1
  96   47   48 1
  97   47  190 1
  98   48  191 1
  99   48  192 1
 100   48  193 1
 101   49   50 2
 102   49   52 1
 103   49   60 am
 104   51   52 1
 105   51  194 1
 106   52   53 1
 107   52  195 1
 108   53   54 1
 109   53  196 1
 110   53  197 1
 111   54   55 1
 112   54  198 1
 113   54  199 1
 114   55   56 2
 115   55   57 am
 116   57  200 1
 117   57  201 1
 118   58   59 2
 119   58   61 1
 120   58   71 am
 121   60   61 1
 122   60  202 1
 123   61   62 1
 124   61  203 1
 125   62   63 1
 126   62  204 1
 127   62  205 1
 128   63   64 1
 129   63  206 1
 130   63  207 1
 131   64   65 1
 132   64  208 1
 133   64  209 1
 134   65   66 1
 135   65  210 1
 136   66   67 2
 137   66   68 1
 138   67  211 1
 139   68  212 1
 140   68  213 1
 141   69   70 2
 142   69   72 1
 143   69   82 am
 144   71   72 1
 145   71  214 1
 146   72   73 1
 147   72  215 1
 148   73   74 1
 149   73  216 1
 150   73  217 1
 151   74   75 1
 152   74  218 1
 153   74  219 1
 154   75   76 1
 155   75  220 1
 156   75  221 1
 157   76   77 1
 158   76  222 1
 159   77   78 2
 160   77   79 1
 161   78  223 1
 162   79  224 1
 163   79  225 1
 164   80   81 2
 165   80   89 am
 166   80   83 1
 167   82   83 1
 168   82   86 1
 169   83   84 1
 170   83  226 1
 171   84   85 1
 172   84  227 1
 173   84  228 1
 174   85   86 1
 175   85  229 1
 176   85  230 1
 177   86  231 1
 178   86  232 1
 179   87   88 2
 180   87   90 1
 181   87   98 am
 182   89   90 1
 183   89  233 1
 184   90   91 1
 185   90  234 1
 186   91   92 1
 187   91  235 1
 188   91  236 1
 189   92   93 1
 190   92  237 1
 191   92  238 1
 192   93   94 2
 193   93   95 am
 194   95  239 1
 195   95  240 1
 196   96   97 2
 197   96   99 1
 198   96  109 am
 199   98   99 1
 200   98  241 1
 201   99  100 1
 202   99  242 1
 203  100  101 1
 204  100  243 1
 205  100  244 1
 206  101  102 1
 207  101  245 1
 208  101  246 1
 209  102  103 1
 210  102  247 1
 211  102  248 1
 212  103  104 1
 213  103  249 1
 214  104  105 2
 215  104  106 1
 216  105  250 1
 217  106  251 1
 218  106  252 1
 219  107  108 2
 220  107  110 1
 221  107  118 am
 222  109  110 1
 223  109  253 1
 224  110  111 1
 225  110  254 1
 226  111  112 1
 227  111  255 1
 228  111  256 1
 229  112  113 1
 230  112  257 1
 231  112  258 1
 232  113  114 2
 233  113  115 am
 234  115  259 1
 235  115  260 1
 236  116  117 2
 237  116  119 1
 238  116  125 1
 239  118  119 1
 240  118  261 1
 241  119  120 1
 242  119  262 1
 243  120  121 1
 244  120  263 1
 245  120  264 1
 246  121  122 1
 247  121  265 1
 248  121  266 1
 249  122  123 1
 250  122  267 1
 251  122  268 1
 252  123  124 1
 253  123  269 1
 254  123  270 1
 255  124  271 1
 256  124  272 1
 257  125  273 1
 258  126  127 2
 259  126  142 1
 260  128  129 1
 261  128  274 1
 262  128  275 1
 263  128  276 1
 264  129  130 1
 265  129  277 1
 266  129  278 1
 267  130  131 1
 268  130  279 1
 269  130  280 1
 270  131  132 1
 271  131  281 1
 272  131  282 1
 273  132  133 1
 274  132  283 1
 275  132  284 1
 276  133  134 1
 277  133  285 1
 278  133  286 1
 279  134  135 1
 280  134  287 1
 281  134  288 1
 282  135  136 1
 283  135  289 1
 284  135  290 1
 285  136  137 1
 286  136  291 1
 287  136  292 1
 288  137  138 1
 289  137  293 1
 290  137  294 1
 291  138  139 1
 292  138  295 1
 293  138  296 1
 294  139  140 1
 295  139  297 1
 296  139  298 1
 297  140  141 1
 298  140  299 1
 299  140  300 1
 300  141  142 1
 301  141  301 1
 302  141  302 1
 303  142  303 1
 304  142  304 1

#	End of record

