#	Name: ASD02030333
#	Creating user name:	WinNT
#	Creation time:	15. 06. 2019 20:15

#	Modifying user name:	WinNT
#	Modification time:	15. 06. 2019 20:15

#	Program:	/corina/corina34_cracker 3.40 0067  02.08.2006

@<TRIPOS>MOLECULE
ASD02030333
  45   45    0    0    0
SMALL
NO_CHARGES


@<TRIPOS>ATOM
   1 C1            -0.0064     1.1987     0.0283 C.2     
   2 O2             0.0697    -0.0138     0.0018 O.2     
   3 C3             1.2258     2.0196    -0.0256 C.ar    
   4 C4             2.4694     1.4037     0.0774 C.ar    
   5 C5             3.6165     2.1824     0.0257 C.ar    
   6 C6             3.4806     3.5509    -0.1274 C.ar    
   7 C7             2.2058     4.1026    -0.2243 C.ar    
   8 N8             1.1332     3.3359    -0.1772 N.ar    
   9 O9             2.0653     5.4436    -0.3746 O.3     
  10 C10            0.7322     5.9498    -0.4682 C.3     
  11 N11           -1.2120     1.7969     0.1011 N.am    
  12 C12           -2.4515     1.0139    -0.0162 C.3     
  13 C13           -3.3607     1.3615     1.1673 C.3     
  14 N14           -3.5487     2.8173     1.2251 N.3     
  15 C15           -2.2766     3.5095     1.4710 C.3     
  16 C16           -1.3230     3.2491     0.3061 C.3     
  17 C17           -3.1582     1.3637    -1.3274 C.3     
  18 C18           -2.1205    -0.4796     0.0113 C.3     
  19 H19            2.5408     0.3326     0.1966 H       
  20 H20            4.5942     1.7304     0.1036 H       
  21 H21            4.3541     4.1845    -0.1709 H       
  22 H22            0.1832     5.6976     0.4390 H       
  23 H23            0.7623     7.0330    -0.5854 H       
  24 H24            0.2343     5.5048    -1.3297 H       
  25 H25           -4.3274     0.8747     1.0385 H       
  26 H26           -2.9001     1.0172     2.0932 H       
  27 H27           -3.9895     3.1587     0.3841 H       
  28 H28           -2.4571     4.5806     1.5626 H       
  29 H29           -1.8311     3.1353     2.3928 H       
  30 H30           -0.3415     3.6621     0.5387 H       
  31 H31           -1.7159     3.7173    -0.5964 H       
  32 H32           -2.5026     1.1315    -2.1667 H       
  33 H33           -4.0762     0.7821    -1.4117 H       
  34 H34           -3.3992     2.4267    -1.3379 H       
  35 H35           -1.5409    -0.7069     0.9060 H       
  36 H36           -3.0452    -1.0566     0.0211 H       
  37 H37           -1.5396    -0.7394    -0.8737 H       
  38 C38           10.7657    14.0213     8.5396 C.2     
  39 C39           10.7861    12.5144     8.5313 C.3     
  40 O40           11.8037    14.6396     8.5330 O.2     
  41 O41            9.5942    14.6765     8.5487 O.3     
  42 F42           12.1112    12.0661     8.5162 F       
  43 F43           10.1439    12.0330     9.6772 F       
  44 F44           10.1221    12.0453     7.3928 F       
  45 H45            9.6317    15.6428     8.5538 H       
@<TRIPOS>BOND
   1    1    2 2
   2    1    3 1
   3    1   11 am
   4    3    4 ar
   5    3    8 ar
   6    4    5 ar
   7    4   19 1
   8    5    6 ar
   9    5   20 1
  10    6    7 ar
  11    6   21 1
  12    7    8 ar
  13    7    9 1
  14    9   10 1
  15   10   22 1
  16   10   23 1
  17   10   24 1
  18   11   12 1
  19   11   16 1
  20   12   13 1
  21   12   17 1
  22   12   18 1
  23   13   14 1
  24   13   25 1
  25   13   26 1
  26   14   15 1
  27   14   27 1
  28   15   16 1
  29   15   28 1
  30   15   29 1
  31   16   30 1
  32   16   31 1
  33   17   32 1
  34   17   33 1
  35   17   34 1
  36   18   35 1
  37   18   36 1
  38   18   37 1
  39   38   39 1
  40   38   40 2
  41   38   41 1
  42   39   42 1
  43   39   43 1
  44   39   44 1
  45   41   45 1

#	End of record

