#	Name: ASD00960169
#	Creating user name:	WinNT
#	Creation time:	15. 06. 2019 18:53

#	Modifying user name:	WinNT
#	Modification time:	15. 06. 2019 18:53

#	Program:	/corina/corina34_cracker 3.40 0067  02.08.2006

@<TRIPOS>MOLECULE
ASD00960169
  86   90    0    0    0
SMALL
NO_CHARGES


@<TRIPOS>ATOM
   1 O1             1.6279     2.5285     1.1522 O.3     
   2 O2             2.1824     2.3308    -1.6721 O.3     
   3 C3             1.8977     3.6186     0.3596 C.3     
   4 C4             2.4780     3.5606    -0.9731 C.3     
   5 C5             1.7855     4.7331    -1.7894 C.3     
   6 O6             0.9020     5.3743    -0.8144 O.3     
   7 C7             0.5107     4.2974     0.0614 C.3     
   8 C8            -0.2516     4.7048     1.3610 C.3     
   9 C9             2.8291     5.7426    -2.1931 C.2     
  10 C10            3.6084     5.6619    -3.2961 C.2     
  11 N11            3.1282     6.8747    -1.5105 N.pl3   
  12 C12            4.1257     7.5440    -2.1778 C.2     
  13 C13            4.4480     6.7958    -3.3133 C.2     
  14 N14            2.6285     7.4356    -0.3260 N.2     
  15 C15            3.1107     8.5658     0.1166 C.2     
  16 N16            4.0760     9.2226    -0.5206 N.2     
  17 C17            4.6009     8.7609    -1.6438 C.2     
  18 O18           -1.0514     3.5876     1.7490 O.3     
  19 N19            5.6029     9.4617    -2.2863 N.pl3   
  20 C20            4.0236     3.7031    -0.9826 C.3     
  21 C21            5.4637     7.1255    -4.3275 C.2     
  22 N22            6.7847     7.3385    -4.0198 N.pl3   
  23 C23            7.5074     7.6418    -5.2662 C.3     
  24 C24            6.4062     7.5724    -6.3425 C.3     
  25 N25            5.1903     7.2347    -5.5900 N.2     
  26 Si26           2.0016     2.3991     2.6247 Si      
  27 Si27          -0.6786     2.4588     2.8130 Si      
  28 O28            0.7015     2.8687     3.6418 O.3     
  29 C29            2.4468     0.5744     3.0603 C.3     
  30 C30            3.4921     3.4168     3.0518 C.3     
  31 C31            3.8875     0.2852     2.6340 C.3     
  32 C32            2.3091     0.3621     4.5692 C.3     
  33 C33            3.9685     3.0573     4.4605 C.3     
  34 C34            4.6098     3.1308     2.0469 C.3     
  35 C35           -2.0545     2.2201     4.0075 C.3     
  36 C36           -1.8347     3.1201     5.2252 C.3     
  37 C37           -3.3808     2.5840     3.3372 C.3     
  38 C38           -0.4680     0.8009     1.8297 C.3     
  39 C39           -1.8388     0.1540     1.6211 C.3     
  40 C40            0.1709     1.0918     0.4703 C.3     
  41 H41            2.5634     2.2814    -2.5595 H       
  42 H42            2.4070     4.3402     0.9875 H       
  43 H43            1.2863     4.3705    -2.6544 H       
  44 H44           -0.1596     3.5252    -0.4974 H       
  45 H45            0.5456     4.8839     2.1368 H       
  46 H46           -0.8432     5.5260     1.1490 H       
  47 H47            3.5914     4.8710    -4.0313 H       
  48 H48            2.7120     8.9812     1.0303 H       
  49 H49            5.8861    10.3248    -1.9459 H       
  50 H50            6.0232     9.0909    -3.0779 H       
  51 H51            4.4739     2.8062    -0.5573 H       
  52 H52            4.3703     3.8325    -2.0079 H       
  53 H53            4.3121     4.5708    -0.3893 H       
  54 H54            7.1751     7.2967    -3.1328 H       
  55 H55            7.9421     8.6405    -5.2250 H       
  56 H56            8.2775     6.8940    -5.4555 H       
  57 H57            6.2961     8.5366    -6.8387 H       
  58 H58            6.6312     6.7916    -7.0690 H       
  59 H59            1.7702    -0.1000     2.5353 H       
  60 H60            3.2324     4.4748     3.0150 H       
  61 H61            4.5756     0.7681     3.3279 H       
  62 H62            4.0596    -0.7911     2.6416 H       
  63 H63            4.0537     0.6727     1.6289 H       
  64 H64            2.4139    -0.6985     4.7980 H       
  65 H65            3.0859     0.9242     5.0876 H       
  66 H66            1.3292     0.7093     4.8971 H       
  67 H67            4.4573     2.0832     4.4413 H       
  68 H68            4.6745     3.8112     4.8088 H       
  69 H69            3.1132     3.0213     5.1352 H       
  70 H70            4.2306     3.2645     1.0338 H       
  71 H71            5.4376     3.8189     2.2187 H       
  72 H72            4.9576     2.1055     2.1724 H       
  73 H73           -2.0824     1.1781     4.3262 H       
  74 H74           -1.8068     4.1621     4.9065 H       
  75 H75           -2.6508     2.9785     5.9337 H       
  76 H76           -0.8898     2.8608     5.7027 H       
  77 H77           -3.2993     3.5714     2.8826 H       
  78 H78           -3.6131     1.8478     2.5677 H       
  79 H79           -4.1750     2.5922     4.0837 H       
  80 H80            0.1718     0.1225     2.3941 H       
  81 H81           -2.2023    -0.2409     2.5697 H       
  82 H82           -2.5392     0.9001     1.2457 H       
  83 H83           -1.7513    -0.6579     0.8991 H       
  84 H84            1.2075     0.7550     0.4764 H       
  85 H85           -0.3781     0.5640    -0.3096 H       
  86 H86            0.1383     2.1638     0.2754 H       
@<TRIPOS>BOND
   1    1   26 1
   2    1    3 1
   3    2    4 1
   4    2   41 1
   5    3    4 1
   6    3    7 1
   7    3   42 1
   8    4   20 1
   9    4    5 1
  10    5    6 1
  11    5    9 1
  12    5   43 1
  13    6    7 1
  14    7    8 1
  15    7   44 1
  16    8   18 1
  17    8   45 1
  18    8   46 1
  19    9   10 2
  20    9   11 1
  21   10   13 1
  22   10   47 1
  23   11   12 1
  24   11   14 1
  25   12   13 2
  26   12   17 1
  27   13   21 1
  28   14   15 2
  29   15   16 1
  30   15   48 1
  31   16   17 2
  32   17   19 1
  33   18   27 1
  34   19   49 1
  35   19   50 1
  36   20   51 1
  37   20   52 1
  38   20   53 1
  39   21   22 1
  40   21   25 2
  41   22   23 1
  42   22   54 1
  43   23   24 1
  44   23   55 1
  45   23   56 1
  46   24   25 1
  47   24   57 1
  48   24   58 1
  49   26   28 1
  50   26   29 1
  51   26   30 1
  52   27   28 1
  53   27   35 1
  54   27   38 1
  55   29   31 1
  56   29   32 1
  57   29   59 1
  58   30   33 1
  59   30   34 1
  60   30   60 1
  61   31   61 1
  62   31   62 1
  63   31   63 1
  64   32   64 1
  65   32   65 1
  66   32   66 1
  67   33   67 1
  68   33   68 1
  69   33   69 1
  70   34   70 1
  71   34   71 1
  72   34   72 1
  73   35   36 1
  74   35   37 1
  75   35   73 1
  76   36   74 1
  77   36   75 1
  78   36   76 1
  79   37   77 1
  80   37   78 1
  81   37   79 1
  82   38   39 1
  83   38   40 1
  84   38   80 1
  85   39   81 1
  86   39   82 1
  87   39   83 1
  88   40   84 1
  89   40   85 1
  90   40   86 1

#	End of record

