#	Name: ASD01948196
#	Creating user name:	WinNT
#	Creation time:	15. 06. 2019 20:13

#	Modifying user name:	WinNT
#	Modification time:	15. 06. 2019 20:13

#	Program:	/corina/corina34_cracker 3.40 0067  02.08.2006

@<TRIPOS>MOLECULE
ASD01948196
  76   82    0    0    0
SMALL
NO_CHARGES


@<TRIPOS>ATOM
   1 C1             2.1413     3.0866    -6.2210 C.ar    
   2 C2             2.5423     2.0048    -7.0191 C.ar    
   3 C3             3.5545     1.1434    -6.5847 C.ar    
   4 C4             4.1620     1.3577    -5.3657 C.ar    
   5 C5             3.7690     2.4306    -4.5668 C.ar    
   6 C6             2.7659     3.2963    -4.9932 C.ar    
   7 F7             5.1397     0.5261    -4.9442 F       
   8 O8             1.1616     3.7338    -6.8858 O.3     
   9 C9             0.9059     3.1366    -8.0632 C.2     
  10 C10            1.7048     2.0731    -8.2231 C.2     
  11 F11            3.9360     0.1030    -7.3576 F       
  12 N12            2.6023     4.2523    -3.9900 N.am    
  13 C13            5.1941     2.3073    -2.5275 C.ar    
  14 C14            4.8583     1.3927    -1.5351 C.ar    
  15 C15            6.5244     2.6404    -2.7386 C.ar    
  16 C16            7.5118     2.0632    -1.9631 C.ar    
  17 C17            7.1762     1.1539    -0.9767 C.ar    
  18 C18            5.8510     0.8186    -0.7625 C.ar    
  19 I19            8.6776     0.2816     0.1954 I       
  20 F20            3.5642     1.0659    -1.3259 F       
  21 C21           -0.0137     4.8019    -3.3683 C.3     
  22 C22           -0.5311     3.5637    -4.1033 C.3     
  23 C23           -1.5698     2.8517    -3.2344 C.3     
  24 O24           -2.7383     3.6669    -3.1244 O.3     
  25 C25           -1.9404     1.5132    -3.8762 C.3     
  26 O26           -2.7762     0.7726    -2.9846 O.3     
  27 C27           -1.0520     5.7704    -2.7983 C.3     
  28 C28           -0.2442     4.8742    -1.8575 C.3     
  29 C29           -3.1501     3.9139    -1.7785 C.3     
  30 C30           -4.4504     4.6756    -1.7828 C.ar    
  31 C31           -5.6494     3.9957    -1.8882 C.ar    
  32 C32           -4.4445     6.0538    -1.6757 C.ar    
  33 C33           -5.6373     6.7525    -1.6797 C.ar    
  34 C34           -6.8360     6.0730    -1.7912 C.ar    
  35 C35           -6.8422     4.6943    -1.8922 C.ar    
  36 C36           -3.2725    -0.4498    -3.5337 C.3     
  37 C37           -4.2328    -1.0842    -2.5608 C.ar    
  38 C38           -5.5616    -0.7034    -2.5534 C.ar    
  39 C39           -6.4424    -1.2852    -1.6609 C.ar    
  40 C40           -5.9945    -2.2482    -0.7761 C.ar    
  41 C41           -4.6658    -2.6297    -0.7841 C.ar    
  42 C42           -3.7859    -2.0509    -1.6795 C.ar    
  43 N43            4.1909     2.8872    -3.3169 N.am    
  44 C44            3.4694     3.9779    -2.9976 C.2     
  45 O45            3.5876     4.6214    -1.9714 O.2     
  46 S46            1.5255     5.5101    -4.0162 S.o2    
  47 O47            2.0652     6.4525    -3.0998 O.2     
  48 O48            1.3879     5.8250    -5.3950 O.2     
  49 H49            0.1644     3.4661    -8.7759 H       
  50 H50            1.7282     1.4010    -9.0682 H       
  51 H51            6.7881     3.3501    -3.5088 H       
  52 H52            8.5472     2.3224    -2.1278 H       
  53 H53            5.5918     0.1082     0.0085 H       
  54 H54           -0.9903     3.8655    -5.0447 H       
  55 H55            0.2995     2.8872    -4.3046 H       
  56 H56           -1.1545     2.6762    -2.2420 H       
  57 H57           -2.4741     1.6931    -4.8094 H       
  58 H58           -1.0331     0.9446    -4.0803 H       
  59 H59           -0.8101     6.8331    -2.8123 H       
  60 H60           -2.1037     5.5255    -2.9470 H       
  61 H61           -0.7644     4.0398    -1.3872 H       
  62 H62            0.5293     5.3474    -1.2525 H       
  63 H63           -3.2867     2.9647    -1.2604 H       
  64 H64           -2.3871     4.5006    -1.2669 H       
  65 H65           -5.6542     2.9186    -1.9677 H       
  66 H66           -3.5080     6.5846    -1.5886 H       
  67 H67           -5.6327     7.8291    -1.5953 H       
  68 H68           -7.7679     6.6188    -1.7939 H       
  69 H69           -7.7786     4.1635    -1.9792 H       
  70 H70           -3.7885    -0.2438    -4.4714 H       
  71 H71           -2.4406    -1.1294    -3.7184 H       
  72 H72           -5.9116     0.0490    -3.2447 H       
  73 H73           -7.4805    -0.9872    -1.6547 H       
  74 H74           -6.6825    -2.7023    -0.0784 H       
  75 H75           -4.3158    -3.3818    -0.0926 H       
  76 H76           -2.7479    -2.3490    -1.6858 H       
@<TRIPOS>BOND
   1    1    2 ar
   2    1    8 1
   3    1    6 ar
   4    2    3 ar
   5    2   10 1
   6    3    4 ar
   7    3   11 1
   8    4    5 ar
   9    4    7 1
  10    5    6 ar
  11    5   43 1
  12    6   12 1
  13    8    9 1
  14    9   10 2
  15    9   49 1
  16   10   50 1
  17   12   46 am
  18   12   44 am
  19   13   14 ar
  20   13   15 ar
  21   13   43 1
  22   14   20 1
  23   14   18 ar
  24   15   16 ar
  25   15   51 1
  26   16   17 ar
  27   16   52 1
  28   17   18 ar
  29   17   19 1
  30   18   53 1
  31   21   22 1
  32   21   27 1
  33   21   46 1
  34   21   28 1
  35   22   23 1
  36   22   54 1
  37   22   55 1
  38   23   24 1
  39   23   25 1
  40   23   56 1
  41   24   29 1
  42   25   26 1
  43   25   57 1
  44   25   58 1
  45   26   36 1
  46   27   28 1
  47   27   59 1
  48   27   60 1
  49   28   61 1
  50   28   62 1
  51   29   30 1
  52   29   63 1
  53   29   64 1
  54   30   31 ar
  55   30   32 ar
  56   31   35 ar
  57   31   65 1
  58   32   33 ar
  59   32   66 1
  60   33   34 ar
  61   33   67 1
  62   34   35 ar
  63   34   68 1
  64   35   69 1
  65   36   37 1
  66   36   70 1
  67   36   71 1
  68   37   38 ar
  69   37   42 ar
  70   38   39 ar
  71   38   72 1
  72   39   40 ar
  73   39   73 1
  74   40   41 ar
  75   40   74 1
  76   41   42 ar
  77   41   75 1
  78   42   76 1
  79   43   44 am
  80   44   45 2
  81   46   47 2
  82   46   48 2

#	End of record

