#	Name: ASD01913414
#	Creating user name:	WinNT
#	Creation time:	15. 06. 2019 20:01

#	Modifying user name:	WinNT
#	Modification time:	15. 06. 2019 20:01

#	Program:	/corina/corina34_cracker 3.40 0067  02.08.2006

@<TRIPOS>MOLECULE
ASD01913414
  34   36    0    0    0
SMALL
NO_CHARGES


@<TRIPOS>ATOM
   1 C1            -0.1084    -0.7205    -2.1596 C.ar    
   2 C2            -0.5525    -0.0423    -1.0290 C.ar    
   3 C3            -0.5256     1.3485    -1.0416 C.ar    
   4 N4            -0.0818     1.9723    -2.1204 N.ar    
   5 C5             0.3308     1.2939    -3.1723 C.ar    
   6 N6             0.3207    -0.0237    -3.1989 N.ar    
   7 C7            -1.0074    -2.0789     0.0069 C.ar    
   8 C8             0.1733    -2.7850     0.1914 C.ar    
   9 C9             0.1723    -4.1691     0.1441 C.ar    
  10 C10           -1.0050    -4.8551    -0.0867 C.ar    
  11 C11           -2.1964    -4.1517    -0.2727 C.ar    
  12 C12           -2.1926    -2.7575    -0.2251 C.ar    
  13 C13           -3.4577    -4.8817    -0.5204 C.2     
  14 N14           -3.4587    -6.2287    -0.5669 N.am    
  15 C15           -4.6613    -6.9204    -0.6942 C.ar    
  16 O16           -4.4939    -4.2672    -0.6821 O.2     
  17 O17           -1.0016    -0.7211     0.0594 O.3     
  18 F18            1.3251    -4.8503     0.3236 F       
  19 C19           -4.6678    -8.3085    -0.6245 C.ar    
  20 C20           -5.8693    -8.9841    -0.7520 C.ar    
  21 C21           -7.0273    -8.2450    -0.9456 C.ar    
  22 C22           -6.9479    -6.8656    -1.0050 C.ar    
  23 N23           -5.7881    -6.2489    -0.8750 N.ar    
  24 Cl24          -8.3922    -5.9334    -1.2470 Cl      
  25 H25           -0.1097    -1.8001    -2.1867 H       
  26 H26           -0.8624     1.9108    -0.1832 H       
  27 H27            0.6873     1.8333    -4.0374 H       
  28 H28            1.0958    -2.2533     0.3720 H       
  29 H29           -1.0033    -5.9345    -0.1235 H       
  30 H30           -3.1116    -2.2085    -0.3680 H       
  31 H31           -2.6221    -6.7165    -0.5116 H       
  32 H32           -3.7474    -8.8530    -0.4732 H       
  33 H33           -5.9044   -10.0624    -0.7023 H       
  34 H34           -7.9808    -8.7416    -1.0492 H       
@<TRIPOS>BOND
   1    1    2 ar
   2    1    6 ar
   3    1   25 1
   4    2    3 ar
   5    2   17 1
   6    3    4 ar
   7    3   26 1
   8    4    5 ar
   9    5    6 ar
  10    5   27 1
  11    7    8 ar
  12    7   12 ar
  13    7   17 1
  14    8    9 ar
  15    8   28 1
  16    9   10 ar
  17    9   18 1
  18   10   11 ar
  19   10   29 1
  20   11   12 ar
  21   11   13 1
  22   12   30 1
  23   13   14 am
  24   13   16 2
  25   14   15 1
  26   14   31 1
  27   15   19 ar
  28   15   23 ar
  29   19   20 ar
  30   19   32 1
  31   20   21 ar
  32   20   33 1
  33   21   22 ar
  34   21   34 1
  35   22   23 ar
  36   22   24 1

#	End of record

