#	Name: ASD04570050
#	Creating user name:	WinNT
#	Creation time:	15. 06. 2019 20:49

#	Modifying user name:	WinNT
#	Modification time:	15. 06. 2019 20:49

#	Program:	/corina/corina34_cracker 3.40 0067  02.08.2006

@<TRIPOS>MOLECULE
ASD04570050
 323  324    0    0    0
SMALL
NO_CHARGES


@<TRIPOS>ATOM
   1 C1             4.2278    -1.5510     0.3370 C.3     
   2 C2             4.0408    -3.0686     0.2823 C.3     
   3 C3             2.5477    -3.4002     0.3229 C.3     
   4 C4             2.3606    -4.9177     0.2683 C.3     
   5 C5             0.8675    -5.2493     0.3088 C.3     
   6 C6             0.6805    -6.7668     0.2542 C.3     
   7 C7            -0.8126    -7.0984     0.2948 C.3     
   8 C8            -0.9997    -8.6160     0.2402 C.3     
   9 C9            -2.4928    -8.9476     0.2807 C.3     
  10 C10           -2.6798   -10.4651     0.2261 C.3     
  11 C11           -4.1729   -10.7967     0.2667 C.3     
  12 C12           -4.3600   -12.3142     0.2120 C.3     
  13 C13           -5.8531   -12.6458     0.2526 C.3     
  14 C14           -6.0401   -14.1634     0.1980 C.3     
  15 C15           -7.5108   -14.4900     0.2379 C.2     
  16 N16           -7.9171   -15.7745     0.2007 N.am    
  17 O17           -8.3287   -13.5969     0.3036 O.2     
  18 C18           -9.3467   -16.0920     0.2395 C.3     
  19 C19           -9.5310   -17.5867     0.1857 C.2     
  20 N20          -10.7710   -18.1141     0.2092 N.am    
  21 O21           -8.5634   -18.3151     0.1213 O.2     
  22 C22          -10.9502   -19.5672     0.1569 C.3     
  23 C23          -12.4208   -19.8938     0.1968 C.2     
  24 N24          -12.8271   -21.1783     0.1596 N.am    
  25 O25          -13.2388   -19.0008     0.2625 O.2     
  26 C26          -14.2567   -21.4958     0.1984 C.3     
  27 C27          -14.4913   -22.8365    -0.4487 C.2     
  28 O28          -13.5564   -23.4648    -0.8981 O.2     
  29 N29          -15.7401   -23.3372    -0.5280 N.am    
  30 C30          -14.7296   -21.5418     1.6528 C.3     
  31 C31          -14.6093   -20.1695     2.2637 C.ar    
  32 C32          -15.6696   -19.2853     2.1889 C.ar    
  33 C33          -15.9682   -24.6404    -1.1571 C.3     
  34 C34          -16.1022   -24.4598    -2.6705 C.3     
  35 C35          -17.2341   -25.2478    -0.6097 C.2     
  36 O36          -17.8820   -24.6508     0.2239 O.2     
  37 N37          -17.6462   -26.4544    -1.0464 N.am    
  38 C38          -14.7746   -23.9603    -3.2440 C.3     
  39 C39          -14.9065   -23.7824    -4.7346 C.2     
  40 N40          -13.8552   -23.3474    -5.4570 N.am    
  41 C41          -18.8768   -27.0449    -0.5142 C.3     
  42 C42          -20.0781   -26.5138    -1.2989 C.3     
  43 C43          -18.8130   -28.5446    -0.6476 C.2     
  44 O44          -17.8357   -29.0686    -1.1388 O.2     
  45 N45          -19.8418   -29.3035    -0.2210 N.am    
  46 C46          -19.7797   -30.7614    -0.3507 C.3     
  47 C47          -20.6857   -31.4060     0.7003 C.3     
  48 C48          -20.2496   -31.1696    -1.7484 C.3     
  49 C49          -20.1529   -31.0858     2.0983 C.3     
  50 C50          -21.1351   -31.6057     3.1499 C.3     
  51 C51          -15.5618   -18.0267     2.7481 C.ar    
  52 C52          -14.3883   -17.6502     3.3852 C.ar    
  53 C53          -13.3259   -18.5392     3.4590 C.ar    
  54 C54          -13.4407   -19.7987     2.9031 C.ar    
  55 O55          -14.2796   -16.4125     3.9358 O.3     
  56 O56          -15.9588   -24.0306    -5.2842 O.2     
  57 C57            5.7209    -1.2195     0.2964 C.3     
  58 H58           -7.2629   -16.4888     0.1481 H       
  59 C59          -20.2164   -25.0084    -1.0627 C.3     
  60 C60          -21.4177   -24.4773    -1.8474 C.3     
  61 C61          -21.5560   -22.9720    -1.6113 C.3     
  62 N62          -22.7094   -22.4621    -2.3647 N.3     
  63 C63          -18.7933   -31.7601     2.2928 C.3     
  64 H64            3.7305    -1.0927    -0.5178 H       
  65 H65            3.7948    -1.1645     1.2595 H       
  66 H66            4.4739    -3.4551    -0.6402 H       
  67 H67            4.5381    -3.5270     1.1371 H       
  68 H68            2.1146    -3.0137     1.2455 H       
  69 H69            2.0504    -2.9418    -0.5319 H       
  70 H70            2.7937    -5.3042    -0.6543 H       
  71 H71            2.8580    -5.3761     1.1230 H       
  72 H72            0.4344    -4.8628     1.2314 H       
  73 H73            0.3702    -4.7909    -0.5459 H       
  74 H74            1.1136    -7.1533    -0.6684 H       
  75 H75            1.1778    -7.2252     1.1090 H       
  76 H76           -1.2457    -6.7119     1.2174 H       
  77 H77           -1.3100    -6.6400    -0.5600 H       
  78 H78           -0.5666    -9.0025    -0.6824 H       
  79 H79           -0.5023    -9.0744     1.0949 H       
  80 H80           -2.9259    -8.5611     1.2033 H       
  81 H81           -2.9901    -8.4892    -0.5740 H       
  82 H82           -2.2468   -10.8516    -0.6965 H       
  83 H83           -2.1825   -10.9235     1.0809 H       
  84 H84           -4.6060   -10.4102     1.1892 H       
  85 H85           -4.6703   -10.3383    -0.5881 H       
  86 H86           -3.9269   -12.7007    -0.7105 H       
  87 H87           -3.8627   -12.7726     1.0668 H       
  88 H88           -6.2862   -12.2593     1.1752 H       
  89 H89           -6.3504   -12.1874    -0.6022 H       
  90 H90           -5.6071   -14.5499    -0.7246 H       
  91 H91           -5.5428   -14.6218     1.0527 H       
  92 H92           -9.7798   -15.7055     1.1621 H       
  93 H93           -9.8441   -15.6336    -0.6153 H       
  94 H94          -11.5449   -17.5316     0.2607 H       
  95 H95          -10.5171   -19.9537    -0.7657 H       
  96 H96          -10.4528   -20.0256     1.0117 H       
  97 H97          -12.1729   -21.8926     0.1070 H       
  98 H98          -14.8139   -20.7297    -0.3408 H       
  99 H99          -16.4879   -22.8346    -0.1686 H       
 100 H100         -15.7702   -21.8645     1.6864 H       
 101 H101         -14.1130   -22.2444     2.2133 H       
 102 H102         -16.5828   -19.5787     1.6925 H       
 103 H103         -15.1268   -25.2995    -0.9429 H       
 104 H104         -16.3597   -25.4145    -3.1289 H       
 105 H105         -16.8858   -23.7322    -2.8816 H       
 106 H106         -17.1280   -26.9319    -1.7130 H       
 107 H107         -14.5170   -23.0055    -2.7855 H       
 108 H108         -13.9909   -24.6879    -3.0329 H       
 109 H109         -13.0136   -23.1488    -5.0175 H       
 110 H110         -13.9401   -23.2329    -6.4165 H       
 111 H111         -18.9828   -26.7778     0.5372 H       
 112 H112         -19.9299   -26.7026    -2.3621 H       
 113 H113         -20.9837   -27.0189    -0.9629 H       
 114 H114         -20.6234   -28.8844     0.1718 H       
 115 H115         -18.7534   -31.0962    -0.2003 H       
 116 H116         -21.6973   -31.0131     0.5982 H       
 117 H117         -20.6991   -32.4862     0.5552 H       
 118 H118         -19.6041   -30.7104    -2.4972 H       
 119 H119         -20.2034   -32.2543    -1.8449 H       
 120 H120         -21.2759   -30.8348    -1.8989 H       
 121 H121         -20.0421   -30.0068     2.2066 H       
 122 H122         -21.3137   -32.6685     2.9863 H       
 123 H123         -20.7149   -31.4569     4.1446 H       
 124 H124         -22.0764   -31.0623     3.0680 H       
 125 H125         -16.3902   -17.3363     2.6891 H       
 126 H126         -12.4113   -18.2485     3.9544 H       
 127 H127         -12.6140   -20.4913     2.9605 H       
 128 H128         -14.5629   -16.3666     4.8592 H       
 129 H129           5.8542    -0.1383     0.3353 H       
 130 H130           6.2183    -1.6778     1.1512 H       
 131 H131           6.1540    -1.6059    -0.6262 H       
 132 H132         -20.3646   -24.8196     0.0005 H       
 133 H133         -19.3109   -24.5032    -1.3987 H       
 134 H134         -21.2694   -24.6662    -2.9106 H       
 135 H135         -22.3232   -24.9825    -1.5115 H       
 136 H136         -21.7042   -22.7831    -0.5480 H       
 137 H137         -20.6504   -22.4668    -1.9472 H       
 138 H138         -23.5515   -22.9599    -2.1174 H       
 139 H139         -22.8221   -21.4691    -2.2251 H       
 140 H140         -18.0936   -31.3896     1.5436 H       
 141 H141         -18.4137   -31.5319     3.2888 H       
 142 H142         -18.9040   -32.8390     2.1845 H       
 143 C143          17.2519    43.1518    13.6555 C.3     
 144 C144          17.0074    41.8676    14.4052 C.2     
 145 N145          17.7626    41.5593    15.4781 N.am    
 146 C146          17.5248    40.3109    16.2068 C.3     
 147 C147          17.7194    39.1413    15.2766 C.2     
 148 N148          17.9537    37.9127    15.7785 N.am    
 149 C149          18.1429    36.7758    14.8742 C.3     
 150 C150          17.7797    35.4996    15.5888 C.2     
 151 N151          17.8766    34.3177    14.9485 N.am    
 152 O152          17.4003    35.5362    16.7402 O.2     
 153 C153          17.5236    33.0771    15.6432 C.3     
 154 C154          18.2558    31.9216    15.0111 C.2     
 155 C155          16.0151    32.8445    15.5368 C.3     
 156 N156          18.0844    30.6729    15.4886 N.am    
 157 O157          18.9994    32.1152    14.0727 O.2     
 158 C158          18.7963    29.5496    14.8741 C.3     
 159 C159          18.0322    28.2745    15.1223 C.2     
 160 N160          18.2045    27.2160    14.3061 N.am    
 161 O161          17.2623    28.2010    16.0566 O.2     
 162 C162          17.5229    25.9513    14.5930 C.3     
 163 C163          18.5081    24.8154    14.4913 C.2     
 164 O164          19.6655    25.0401    14.2071 O.2     
 165 N165          18.1029    23.5498    14.7160 N.am    
 166 C166          19.0606    22.4456    14.6172 C.3     
 167 C167          19.7988    22.2900    15.9482 C.3     
 168 C168          18.3248    21.1695    14.2987 C.2     
 169 O169          17.1192    21.1813    14.1672 O.2     
 170 N170          19.0066    20.0152    14.1599 N.am    
 171 C171          18.2913    18.7747    13.8503 C.3     
 172 C172          18.0891    18.6666    12.3376 C.3     
 173 C173          19.0961    17.5965    14.3351 C.2     
 174 O174          20.1622    17.7753    14.8850 O.2     
 175 N175          18.6312    16.3440    14.1575 N.am    
 176 C176          19.4136    15.1985    14.6287 C.3     
 177 C177          20.4418    14.8106    13.5642 C.3     
 178 C178          18.4932    14.0334    14.8863 C.2     
 179 O179          17.3011    14.1484    14.6951 O.2     
 180 N180          18.9948    12.8635    15.3292 N.am    
 181 C181          21.4515    15.9472    13.3922 C.3     
 182 C182          22.4797    15.5592    12.3277 C.3     
 183 N183          23.4465    16.6475    12.1630 N.pl3   
 184 C184          24.4710    16.5253    11.2544 C.2     
 185 C185          20.1934    29.4345    15.4871 C.3     
 186 C186          20.9900    28.3609    14.7430 C.3     
 187 O187          20.8670    30.6899    15.3764 O.3     
 188 C188          16.3942    25.7395    13.5821 C.3     
 189 C189          15.3303    26.7863    13.7904 C.2     
 190 O190          14.3019    26.8780    12.9326 O.3     
 191 O191          15.4030    27.5430    14.7296 O.2     
 192 C192          20.6450    23.5374    16.2109 C.3     
 193 C193          21.3832    23.3818    17.5419 C.3     
 194 C194          22.2294    24.6292    17.8046 C.3     
 195 N195          22.9382    24.4798    19.0826 N.3     
 196 C196          17.1826    19.7765    11.8713 C.ar    
 197 C197          17.7206    20.9886    11.4800 C.ar    
 198 C198          15.8148    19.5790    11.8301 C.ar    
 199 C199          14.9817    20.5947    11.4026 C.ar    
 200 C200          15.5186    21.8136    11.0145 C.ar    
 201 C201          16.8917    22.0076    11.0522 C.ar    
 202 N202          24.5883    15.3817    10.5003 N.pl3   
 203 N203          25.3312    17.4935    11.1079 N.2     
 204 C204          19.6062    36.7139    14.4318 C.3     
 205 O205          20.4346    36.4388    15.5632 O.3     
 206 O206          17.6650    39.3057    14.0762 O.2     
 207 C207          16.0934    40.3003    16.7470 C.3     
 208 C208          15.9319    41.4122    17.7855 C.3     
 209 C209          14.5005    41.4016    18.3257 C.3     
 210 N210          14.3459    42.4662    19.3201 N.pl3   
 211 C211          13.1363    42.6511    19.9468 C.2     
 212 N212          12.0717    41.8369    19.6403 N.pl3   
 213 N213          12.9987    43.5984    20.8315 N.2     
 214 O214          16.1310    41.1114    14.0430 O.2     
 215 C215          18.1001    11.7308    15.5796 C.3     
 216 C216          18.7275    10.8098    16.5941 C.2     
 217 C217          17.8656    10.9678    14.2744 C.3     
 218 C218          17.1165    11.8647    13.2868 C.3     
 219 N219          18.0802     9.6930    16.9816 N.am    
 220 O220          19.8149    11.0735    17.0619 O.2     
 221 C221          16.9915    11.1483    11.9407 C.3     
 222 O222          14.7011    22.8142    10.5932 O.3     
 223 C223          15.7205    12.1704    13.8333 C.3     
 224 C224          18.6901     8.7976    17.9678 C.3     
 225 C225          18.3731     9.2895    19.3566 C.2     
 226 C226          18.1321     7.3845    17.7875 C.3     
 227 C227          18.5539     6.8453    16.4450 C.2     
 228 C228          19.2108     5.6901    16.2270 C.2     
 229 N229          19.3923     5.5869    14.8742 N.pl3   
 230 C230          18.8395     6.6834    14.3122 C.2     
 231 N231          18.3356     7.4290    15.2573 N.2     
 232 O232          17.7037    10.2894    19.5077 O.2     
 233 N233          18.8336     8.6181    20.4307 N.am    
 234 H234          18.2717    43.1594    13.2707 H       
 235 H235          16.5497    43.2272    12.8253 H       
 236 H236          17.1112    43.9977    14.3284 H       
 237 H237          18.4635    42.1641    15.7678 H       
 238 H238          18.2271    40.2354    17.0371 H       
 239 H239          17.9972    37.7812    16.7386 H       
 240 H240          17.5037    36.8969    13.9996 H       
 241 H241          18.1800    34.2884    14.0276 H       
 242 H242          17.8059    33.1556    16.6930 H       
 243 H243          15.7327    32.7660    14.4869 H       
 244 H244          15.7524    31.9215    16.0537 H       
 245 H245          15.4854    33.6803    15.9939 H       
 246 H246          17.4897    30.5181    16.2391 H       
 247 H247          18.8832    29.7180    13.8007 H       
 248 H248          18.7797    27.2914    13.5288 H       
 249 H249          17.1075    25.9828    15.6002 H       
 250 H250          17.1772    23.3700    14.9433 H       
 251 H251          19.7793    22.6578    13.8257 H       
 252 H252          19.0744    22.1663    16.7532 H       
 253 H253          20.4464    21.4143    15.9043 H       
 254 H254          19.9708    20.0058    14.2650 H       
 255 H255          17.3211    18.7811    14.3470 H       
 256 H256          19.0530    18.7495    11.8353 H       
 257 H257          17.6369    17.7038    12.0994 H       
 258 H258          17.7786    16.2009    13.7176 H       
 259 H259          19.9289    15.4654    15.5514 H       
 260 H260          20.9632    13.9054    13.8754 H       
 261 H261          19.9336    14.6297    12.6170 H       
 262 H262          19.9483    12.7714    15.4821 H       
 263 H263          20.9301    16.8524    13.0809 H       
 264 H264          21.9597    16.1281    14.3394 H       
 265 H265          23.0011    14.6540    12.6390 H       
 266 H266          21.9715    15.3783    11.3805 H       
 267 H267          23.3638    17.4544    12.6951 H       
 268 H268          20.1074    29.1598    16.5385 H       
 269 H269          21.1553    28.6792    13.7137 H       
 270 H270          21.9506    28.2138    15.2366 H       
 271 H271          20.4315    27.4248    14.7486 H       
 272 H272          20.4174    31.4185    15.8258 H       
 273 H273          16.7921    25.8221    12.5706 H       
 274 H274          15.9617    24.7489    13.7226 H       
 275 H275          13.6443    27.5651    13.1075 H       
 276 H276          21.3694    23.6611    15.4059 H       
 277 H277          19.9974    24.4131    16.2548 H       
 278 H278          20.6588    23.2580    18.3469 H       
 279 H279          22.0308    22.5061    17.4981 H       
 280 H280          22.9538    24.7529    16.9997 H       
 281 H281          21.5818    25.5049    17.8485 H       
 282 H282          23.5046    25.2914    19.2790 H       
 283 H283          22.2915    24.2993    19.8358 H       
 284 H284          18.7897    21.1390    11.5093 H       
 285 H285          15.3973    18.6298    12.1320 H       
 286 H286          13.9133    20.4398    11.3703 H       
 287 H287          17.3121    22.9556    10.7506 H       
 288 H288          23.9481    14.6611    10.6093 H       
 289 H289          25.3111    15.2954     9.8592 H       
 290 H290          26.0540    17.4073    10.4668 H       
 291 H291          19.7288    35.9237    13.6911 H       
 292 H292          19.8943    37.6698    13.9944 H       
 293 H293          21.3777    36.3854    15.3564 H       
 294 H294          15.3944    40.4647    15.9270 H       
 295 H295          15.8877    39.3361    17.2120 H       
 296 H296          16.6310    41.2477    18.6055 H       
 297 H297          16.1377    42.3763    17.3205 H       
 298 H298          13.8015    41.5660    17.5057 H       
 299 H299          14.2948    40.4374    18.7907 H       
 300 H300          15.0970    43.0407    19.5363 H       
 301 H301          12.1741    41.1319    18.9819 H       
 302 H302          11.2183    41.9673    20.0825 H       
 303 H303          12.1453    43.7288    21.2737 H       
 304 H304          17.1477    12.0978    15.9621 H       
 305 H305          18.8249    10.6774    13.8459 H       
 306 H306          17.2730    10.0756    14.4765 H       
 307 H307          17.6663    12.7963    13.1529 H       
 308 H308          17.2104     9.4820    16.6075 H       
 309 H309          16.4417    10.2167    12.0746 H       
 310 H310          16.4578    11.7873    11.2372 H       
 311 H311          17.9861    10.9304    11.5514 H       
 312 H312          14.3968    23.3980    11.3015 H       
 313 H313          15.8095    12.6809    14.7923 H       
 314 H314          15.1868    12.8094    13.1298 H       
 315 H315          15.1707    11.2389    13.9672 H       
 316 H316          19.7706     8.7825    17.8255 H       
 317 H317          18.5177     6.7382    18.5761 H       
 318 H318          17.0438     7.4139    17.8417 H       
 319 H319          19.5330     4.9815    16.9757 H       
 320 H320          19.8353     4.8617    14.4065 H       
 321 H321          18.8149     6.9046    13.2554 H       
 322 H322          19.3690     7.8184    20.3098 H       
 323 H323          18.6296     8.9347    21.3246 H       
@<TRIPOS>BOND
   1    1    2 1
   2    1   57 1
   3    1   64 1
   4    1   65 1
   5    2    3 1
   6    2   66 1
   7    2   67 1
   8    3    4 1
   9    3   68 1
  10    3   69 1
  11    4    5 1
  12    4   70 1
  13    4   71 1
  14    5    6 1
  15    5   72 1
  16    5   73 1
  17    6    7 1
  18    6   74 1
  19    6   75 1
  20    7    8 1
  21    7   76 1
  22    7   77 1
  23    8    9 1
  24    8   78 1
  25    8   79 1
  26    9   10 1
  27    9   80 1
  28    9   81 1
  29   10   11 1
  30   10   82 1
  31   10   83 1
  32   11   12 1
  33   11   84 1
  34   11   85 1
  35   12   13 1
  36   12   86 1
  37   12   87 1
  38   13   14 1
  39   13   88 1
  40   13   89 1
  41   14   15 1
  42   14   90 1
  43   14   91 1
  44   15   16 am
  45   15   17 2
  46   16   18 1
  47   16   58 1
  48   18   19 1
  49   18   92 1
  50   18   93 1
  51   19   20 am
  52   19   21 2
  53   20   22 1
  54   20   94 1
  55   22   23 1
  56   22   95 1
  57   22   96 1
  58   23   24 am
  59   23   25 2
  60   24   26 1
  61   24   97 1
  62   26   27 1
  63   26   30 1
  64   26   98 1
  65   27   28 2
  66   27   29 am
  67   29   33 1
  68   29   99 1
  69   30   31 1
  70   30  100 1
  71   30  101 1
  72   31   32 ar
  73   31   54 ar
  74   32   51 ar
  75   32  102 1
  76   33   34 1
  77   33   35 1
  78   33  103 1
  79   34   38 1
  80   34  104 1
  81   34  105 1
  82   35   36 2
  83   35   37 am
  84   37   41 1
  85   37  106 1
  86   38   39 1
  87   38  107 1
  88   38  108 1
  89   39   40 am
  90   39   56 2
  91   40  109 1
  92   40  110 1
  93   41   42 1
  94   41   43 1
  95   41  111 1
  96   42   59 1
  97   42  112 1
  98   42  113 1
  99   43   44 2
 100   43   45 am
 101   45   46 1
 102   45  114 1
 103   46   47 1
 104   46   48 1
 105   46  115 1
 106   47   49 1
 107   47  116 1
 108   47  117 1
 109   48  118 1
 110   48  119 1
 111   48  120 1
 112   49   50 1
 113   49   63 1
 114   49  121 1
 115   50  122 1
 116   50  123 1
 117   50  124 1
 118   51   52 ar
 119   51  125 1
 120   52   53 ar
 121   52   55 1
 122   53   54 ar
 123   53  126 1
 124   54  127 1
 125   55  128 1
 126   57  129 1
 127   57  130 1
 128   57  131 1
 129   59   60 1
 130   59  132 1
 131   59  133 1
 132   60   61 1
 133   60  134 1
 134   60  135 1
 135   61   62 1
 136   61  136 1
 137   61  137 1
 138   62  138 1
 139   62  139 1
 140   63  140 1
 141   63  141 1
 142   63  142 1
 143  143  144 1
 144  143  234 1
 145  143  235 1
 146  143  236 1
 147  144  145 am
 148  144  214 2
 149  145  146 1
 150  145  237 1
 151  146  147 1
 152  146  207 1
 153  146  238 1
 154  147  148 am
 155  147  206 2
 156  148  149 1
 157  148  239 1
 158  149  150 1
 159  149  204 1
 160  149  240 1
 161  150  151 am
 162  150  152 2
 163  151  153 1
 164  151  241 1
 165  153  154 1
 166  153  155 1
 167  153  242 1
 168  154  156 am
 169  154  157 2
 170  155  243 1
 171  155  244 1
 172  155  245 1
 173  156  158 1
 174  156  246 1
 175  158  159 1
 176  158  185 1
 177  158  247 1
 178  159  160 am
 179  159  161 2
 180  160  162 1
 181  160  248 1
 182  162  163 1
 183  162  188 1
 184  162  249 1
 185  163  164 2
 186  163  165 am
 187  165  166 1
 188  165  250 1
 189  166  167 1
 190  166  168 1
 191  166  251 1
 192  167  192 1
 193  167  252 1
 194  167  253 1
 195  168  169 2
 196  168  170 am
 197  170  171 1
 198  170  254 1
 199  171  172 1
 200  171  173 1
 201  171  255 1
 202  172  196 1
 203  172  256 1
 204  172  257 1
 205  173  174 2
 206  173  175 am
 207  175  176 1
 208  175  258 1
 209  176  177 1
 210  176  178 1
 211  176  259 1
 212  177  181 1
 213  177  260 1
 214  177  261 1
 215  178  179 2
 216  178  180 am
 217  180  215 1
 218  180  262 1
 219  181  182 1
 220  181  263 1
 221  181  264 1
 222  182  183 1
 223  182  265 1
 224  182  266 1
 225  183  184 1
 226  183  267 1
 227  184  202 1
 228  184  203 2
 229  185  186 1
 230  185  187 1
 231  185  268 1
 232  186  269 1
 233  186  270 1
 234  186  271 1
 235  187  272 1
 236  188  189 1
 237  188  273 1
 238  188  274 1
 239  189  190 1
 240  189  191 2
 241  190  275 1
 242  192  193 1
 243  192  276 1
 244  192  277 1
 245  193  194 1
 246  193  278 1
 247  193  279 1
 248  194  195 1
 249  194  280 1
 250  194  281 1
 251  195  282 1
 252  195  283 1
 253  196  197 ar
 254  196  198 ar
 255  197  201 ar
 256  197  284 1
 257  198  199 ar
 258  198  285 1
 259  199  200 ar
 260  199  286 1
 261  200  201 ar
 262  200  222 1
 263  201  287 1
 264  202  288 1
 265  202  289 1
 266  203  290 1
 267  204  205 1
 268  204  291 1
 269  204  292 1
 270  205  293 1
 271  207  208 1
 272  207  294 1
 273  207  295 1
 274  208  209 1
 275  208  296 1
 276  208  297 1
 277  209  210 1
 278  209  298 1
 279  209  299 1
 280  210  211 1
 281  210  300 1
 282  211  212 1
 283  211  213 2
 284  212  301 1
 285  212  302 1
 286  213  303 1
 287  215  216 1
 288  215  217 1
 289  215  304 1
 290  216  219 am
 291  216  220 2
 292  217  218 1
 293  217  305 1
 294  217  306 1
 295  218  221 1
 296  218  223 1
 297  218  307 1
 298  219  224 1
 299  219  308 1
 300  221  309 1
 301  221  310 1
 302  221  311 1
 303  222  312 1
 304  223  313 1
 305  223  314 1
 306  223  315 1
 307  224  225 1
 308  224  226 1
 309  224  316 1
 310  225  232 2
 311  225  233 am
 312  226  227 1
 313  226  317 1
 314  226  318 1
 315  227  228 2
 316  227  231 1
 317  228  229 1
 318  228  319 1
 319  229  230 1
 320  229  320 1
 321  230  231 2
 322  230  321 1
 323  233  322 1
 324  233  323 1

#	End of record

