#	Name: ASD00310339
#	Creating user name:	WinNT
#	Creation time:	15. 06. 2019 18:34

#	Modifying user name:	WinNT
#	Modification time:	15. 06. 2019 18:34

#	Program:	/corina/corina34_cracker 3.40 0067  02.08.2006

@<TRIPOS>MOLECULE
ASD00310339
  33   35    0    0    0
SMALL
NO_CHARGES


@<TRIPOS>ATOM
   1 N1            -0.0083     1.2396    -0.0232 N.pl3   
   2 N2             0.0143    -0.0436    -0.0465 N.2     
   3 C3             1.2430    -0.5145    -0.0655 C.2     
   4 C4             2.1335     0.6550    -0.0521 C.ar    
   5 C5             3.5091     0.8512    -0.0607 C.ar    
   6 C6             4.0117     2.1466    -0.0421 C.ar    
   7 C7             3.1349     3.2400    -0.0149 C.ar    
   8 C8             1.7832     3.0502    -0.0059 C.ar    
   9 C9             1.2592     1.7602    -0.0247 C.ar    
  10 C10            1.6456    -1.9305    -0.0945 C.2     
  11 O11            2.8241    -2.2270    -0.1095 O.2     
  12 O12            0.7070    -2.8979    -0.1044 O.3     
  13 Cl13           3.7753     4.8534     0.0082 Cl      
  14 C14            5.4761     2.3724    -0.0504 C.ar    
  15 C15            6.0387     3.2633    -0.9662 C.ar    
  16 C16            7.3884     3.4730    -0.9758 C.ar    
  17 C17            8.2078     2.7936    -0.0661 C.ar    
  18 C18            7.6413     1.9005     0.8516 C.ar    
  19 C19            6.2904     1.6982     0.8613 C.ar    
  20 C20            9.6602     3.0172    -0.0747 C.2     
  21 O21           10.1618     3.7118    -0.9331 O.2     
  22 C22           10.5265     2.3833     0.9830 C.3     
  23 H23           -0.8188     1.7724    -0.0104 H       
  24 H24            4.1807     0.0057    -0.0813 H       
  25 H25            1.1193     3.9017     0.0158 H       
  26 H26            1.0197    -3.8127    -0.1235 H       
  27 H27            5.4063     3.7868    -1.6680 H       
  28 H28            7.8232     4.1620    -1.6847 H       
  29 H29            8.2714     1.3754     1.5542 H       
  30 H30            5.8525     1.0130     1.5720 H       
  31 H31            9.8957     1.8791     1.7152 H       
  32 H32           11.1949     1.6582     0.5188 H       
  33 H33           11.1154     3.1540     1.4803 H       
@<TRIPOS>BOND
   1    1    2 1
   2    1    9 1
   3    1   23 1
   4    2    3 2
   5    3    4 1
   6    3   10 1
   7    4    5 ar
   8    4    9 ar
   9    5    6 ar
  10    5   24 1
  11    6    7 ar
  12    6   14 1
  13    7    8 ar
  14    7   13 1
  15    8    9 ar
  16    8   25 1
  17   10   11 2
  18   10   12 1
  19   12   26 1
  20   14   15 ar
  21   14   19 ar
  22   15   16 ar
  23   15   27 1
  24   16   17 ar
  25   16   28 1
  26   17   18 ar
  27   17   20 1
  28   18   19 ar
  29   18   29 1
  30   19   30 1
  31   20   21 2
  32   20   22 1
  33   22   31 1
  34   22   32 1
  35   22   33 1

#	End of record

