#	Name: ASD01148704
#	Creating user name:	WinNT
#	Creation time:	15. 06. 2019 19:03

#	Modifying user name:	WinNT
#	Modification time:	15. 06. 2019 19:03

#	Program:	/corina/corina34_cracker 3.40 0067  02.08.2006

@<TRIPOS>MOLECULE
ASD01148704
  54   57    0    0    0
SMALL
NO_CHARGES


@<TRIPOS>ATOM
   1 C1            -0.0187     1.5259     0.0104 C.3     
   2 C2             0.0021    -0.0041     0.0020 C.3     
   3 C3             0.7406    -0.5111     1.2420 C.3     
   4 C4             1.4174     2.0541    -0.0004 C.3     
   5 C5             2.1558     1.5479     1.2399 C.3     
   6 C6             3.5906     2.0784     1.2329 C.3     
   7 C7             4.3276     1.5738     2.4753 C.3     
   8 C8             4.3523     0.0447     2.4670 C.3     
   9 C9             5.0311    -0.4786     3.7190 C.3     
  10 C10            6.5128    -0.1215     3.8769 C.3     
  11 C11            7.0349    -1.2233     4.8392 C.3     
  12 C12            6.0741    -2.4286     4.6853 C.3     
  13 C13            5.0924    -2.0248     3.5901 C.3     
  14 C14            5.6584    -2.4077     2.2212 C.3     
  15 C15            3.6759    -2.5483     3.7236 C.3     
  16 C16            2.8727    -2.0076     2.5286 C.3     
  17 C17            2.9097    -0.4840     2.4789 C.3     
  18 C18            2.1766     0.0177     1.2343 C.3     
  19 C19            2.8970    -0.4787    -0.0209 C.3     
  20 C20            6.8410    -3.6582     4.2717 C.2     
  21 S21            6.8012    -4.9701     5.1850 S.2     
  22 O22           -0.6871     1.9869     1.1863 O.3     
  23 H23           -0.5456     1.8871    -0.8727 H       
  24 H24           -1.0205    -0.3813     0.0086 H       
  25 H25            0.5131    -0.3555    -0.8943 H       
  26 H26            0.2292    -0.1600     2.1382 H       
  27 H27            0.7550    -1.6010     1.2358 H       
  28 H28            1.9277     1.7009    -0.8965 H       
  29 H29            1.4037     3.1440     0.0043 H       
  30 H30            1.6435     1.8990     2.1356 H       
  31 H31            4.1038     1.7263     0.3380 H       
  32 H32            3.5750     3.1683     1.2375 H       
  33 H33            5.3493     1.9537     2.4711 H       
  34 H34            3.8133     1.9240     3.3702 H       
  35 H35            4.8839    -0.3102     1.5840 H       
  36 H36            4.4722    -0.1798     4.6058 H       
  37 H37            7.0264    -0.1728     2.9168 H       
  38 H38            6.6260     0.8662     4.3238 H       
  39 H39            8.0477    -1.5142     4.5605 H       
  40 H40            7.0187    -0.8607     5.8670 H       
  41 H41            5.5434    -2.6102     5.6199 H       
  42 H42            6.6624    -1.9968     2.1152 H       
  43 H43            5.6994    -3.4936     2.1358 H       
  44 H44            5.0167    -2.0056     1.4372 H       
  45 H45            3.6802    -3.6382     3.7048 H       
  46 H46            3.2363    -2.1946     4.6562 H       
  47 H47            3.2951    -2.4050     1.6057 H       
  48 H48            1.8373    -2.3367     2.6164 H       
  49 H49            2.3978    -0.0905     3.3571 H       
  50 H50            2.3731    -0.1195    -0.9066 H       
  51 H51            3.9198    -0.1017    -0.0258 H       
  52 H52            2.9115    -1.5686    -0.0243 H       
  53 H53            7.4175    -3.6533     3.3585 H       
  54 H54           -1.6041     1.6888     1.2599 H       
@<TRIPOS>BOND
   1    1    2 1
   2    1    4 1
   3    1   22 1
   4    1   23 1
   5    2    3 1
   6    2   24 1
   7    2   25 1
   8    3   18 1
   9    3   26 1
  10    3   27 1
  11    4    5 1
  12    4   28 1
  13    4   29 1
  14    5    6 1
  15    5   18 1
  16    5   30 1
  17    6    7 1
  18    6   31 1
  19    6   32 1
  20    7    8 1
  21    7   33 1
  22    7   34 1
  23    8    9 1
  24    8   17 1
  25    8   35 1
  26    9   10 1
  27    9   13 1
  28    9   36 1
  29   10   11 1
  30   10   37 1
  31   10   38 1
  32   11   12 1
  33   11   39 1
  34   11   40 1
  35   12   13 1
  36   12   20 1
  37   12   41 1
  38   13   14 1
  39   13   15 1
  40   14   42 1
  41   14   43 1
  42   14   44 1
  43   15   16 1
  44   15   45 1
  45   15   46 1
  46   16   17 1
  47   16   47 1
  48   16   48 1
  49   17   18 1
  50   17   49 1
  51   18   19 1
  52   19   50 1
  53   19   51 1
  54   19   52 1
  55   20   21 2
  56   20   53 1
  57   22   54 1

#	End of record

