#	Name: ASD08830151
#	Creating user name:	WinNT
#	Creation time:	15. 06. 2019 21:19

#	Modifying user name:	WinNT
#	Modification time:	15. 06. 2019 21:19

#	Program:	/corina/corina34_cracker 3.40 0067  02.08.2006

@<TRIPOS>MOLECULE
ASD08830151
  43   44    0    0    0
SMALL
NO_CHARGES


@<TRIPOS>ATOM
   1 C1             0.5524     1.1042    -0.7848 C.ar    
   2 C2             0.3964    -0.3557    -0.6997 C.2     
   3 C3            -0.9525    -0.9526    -0.3912 C.3     
   4 C4            -0.8402    -2.4782    -0.3609 C.3     
   5 N5            -2.1551    -3.0600    -0.0602 N.3     
   6 O6             1.3533    -1.0791    -0.8777 O.2     
   7 C7             1.7970     1.6492    -1.0692 C.ar    
   8 C8             0.8063     3.8721    -0.9373 C.ar    
   9 C9            -0.4439     3.2892    -0.6563 C.ar    
  10 C10           -3.1067    -2.8012    -1.1490 C.3     
  11 C11           -2.0442    -4.4995     0.2110 C.3     
  12 C12            1.9373     3.0422    -1.1486 C.ar    
  13 C13           -0.5637     1.9403    -0.5829 C.ar    
  14 C14            3.1819     3.6319    -1.4340 C.ar    
  15 C15            3.2849     4.9875    -1.5038 C.ar    
  16 C16            2.1739     5.8020    -1.2958 C.ar    
  17 C17            0.9532     5.2662    -1.0169 C.ar    
  18 C18           -1.4674    -4.7116     1.6121 C.3     
  19 C19           -2.4520    -4.1789     2.6550 C.3     
  20 C20           -1.2342    -6.2054     1.8470 C.3     
  21 H21           -1.2951    -0.5941     0.5795 H       
  22 H22           -1.6655    -0.6560    -1.1604 H       
  23 H23           -0.4976    -2.8366    -1.3316 H       
  24 H24           -0.1272    -2.7748     0.4083 H       
  25 H25            2.6500     1.0059    -1.2276 H       
  26 H26           -1.3076     3.9171    -0.4944 H       
  27 H27           -2.6862    -3.1541    -2.0906 H       
  28 H28           -4.0402    -3.3270    -0.9483 H       
  29 H29           -3.2999    -1.7306    -1.2159 H       
  30 H30           -3.0315    -4.9576     0.1514 H       
  31 H31           -1.3856    -4.9585    -0.5264 H       
  32 H32           -1.5266     1.5014    -0.3672 H       
  33 H33            4.0515     3.0124    -1.5967 H       
  34 H34            4.2416     5.4380    -1.7231 H       
  35 H35            2.2824     6.8748    -1.3564 H       
  36 H36            0.1015     5.9111    -0.8582 H       
  37 H37           -0.5210    -4.1779     1.7000 H       
  38 H38           -3.3716    -4.7631     2.6182 H       
  39 H39           -2.0093    -4.2604     3.6477 H       
  40 H40           -2.6767    -3.1338     2.4421 H       
  41 H41           -0.5327    -6.5848     1.1040 H       
  42 H42           -0.8233    -6.3564     2.8452 H       
  43 H43           -2.1806    -6.7390     1.7591 H       
@<TRIPOS>BOND
   1    1    2 1
   2    1    7 ar
   3    1   13 ar
   4    2    3 1
   5    2    6 2
   6    3    4 1
   7    3   21 1
   8    3   22 1
   9    4    5 1
  10    4   23 1
  11    4   24 1
  12    5   10 1
  13    5   11 1
  14    7   12 ar
  15    7   25 1
  16    8    9 ar
  17    8   12 ar
  18    8   17 ar
  19    9   13 ar
  20    9   26 1
  21   10   27 1
  22   10   28 1
  23   10   29 1
  24   11   18 1
  25   11   30 1
  26   11   31 1
  27   12   14 ar
  28   13   32 1
  29   14   15 ar
  30   14   33 1
  31   15   16 ar
  32   15   34 1
  33   16   17 ar
  34   16   35 1
  35   17   36 1
  36   18   19 1
  37   18   20 1
  38   18   37 1
  39   19   38 1
  40   19   39 1
  41   19   40 1
  42   20   41 1
  43   20   42 1
  44   20   43 1

#	End of record

