#	Name: ASD04590676
#	Creating user name:	WinNT
#	Creation time:	15. 06. 2019 20:51

#	Modifying user name:	WinNT
#	Modification time:	15. 06. 2019 20:51

#	Program:	/corina/corina34_cracker 3.40 0067  02.08.2006

@<TRIPOS>MOLECULE
ASD04590676
  60   65    0    0    0
SMALL
NO_CHARGES


@<TRIPOS>ATOM
   1 N1            -0.0157     1.3485    -0.0091 N.ar    
   2 C2             0.0071     0.0218    -0.0065 C.ar    
   3 N3             1.1374    -0.6661    -0.0143 N.ar    
   4 C4             2.3107    -0.0402    -0.0251 C.ar    
   5 C5             2.3202     1.3692    -0.0281 C.ar    
   6 C6             1.1063     2.0491    -0.0196 C.ar    
   7 N7             3.6100    -0.4824    -0.0352 N.pl3   
   8 C8             4.4858     0.5906    -0.0448 C.ar    
   9 C9             3.7312     1.7759    -0.0409 C.ar    
  10 N10           -1.1944    -0.6673     0.0052 N.pl3   
  11 C11           -2.3966     0.0293     0.1276 C.ar    
  12 C12            4.0136    -1.8907    -0.0349 C.3     
  13 C13            3.4743    -2.5934     1.2233 C.3     
  14 N14           -2.3772     1.3364     0.3339 N.ar    
  15 C15           -3.4893     2.0357     0.4558 C.ar    
  16 C16           -4.7284     1.4178     0.3714 C.ar    
  17 C17           -4.7883     0.0424     0.1546 C.ar    
  18 C18           -3.6015    -0.6566     0.0258 C.ar    
  19 N19           -5.9040     2.1664     0.5027 N.3     
  20 C20           -6.6761     2.1581    -0.7477 C.3     
  21 C21           -7.9097     3.0499    -0.5884 C.3     
  22 N22           -8.7235     2.5601     0.5330 N.3     
  23 C23           -7.9514     2.5684     1.7834 C.3     
  24 C24           -6.7178     1.6766     1.6240 C.3     
  25 C25            5.8739     0.6881    -0.0571 C.ar    
  26 N26            6.4626     1.8686    -0.0645 N.ar    
  27 C27            5.7801     3.0007    -0.0611 C.ar    
  28 C28            4.4022     2.9993    -0.0491 C.ar    
  29 F29            6.6245    -0.4352    -0.0612 F       
  30 C30            2.5455    -3.7234     0.7332 C.3     
  31 C31            3.0400    -4.0253    -0.7033 C.3     
  32 C32            3.3937    -2.6183    -1.2458 C.3     
  33 C33           -5.8903     1.7154     2.9104 C.3     
  34 H34            1.0806     3.1287    -0.0220 H       
  35 H35           -1.1997    -1.6342    -0.0718 H       
  36 H36            5.1003    -1.9674    -0.0685 H       
  37 H37            4.2992    -3.0118     1.7999 H       
  38 H38            2.9123    -1.8866     1.8338 H       
  39 H39           -3.4343     3.1011     0.6236 H       
  40 H40           -5.7391    -0.4652     0.0849 H       
  41 H41           -3.6108    -1.7232    -0.1433 H       
  42 H42           -6.0562     2.5367    -1.5604 H       
  43 H43           -6.9907     1.1393    -0.9741 H       
  44 H44           -7.5947     4.0741    -0.3889 H       
  45 H45           -8.4992     3.0223    -1.5048 H       
  46 H46           -9.5708     3.0997     0.6276 H       
  47 H47           -7.6369     3.5872     2.0098 H       
  48 H48           -8.5713     2.1898     2.5961 H       
  49 H49           -7.0328     0.6524     1.4246 H       
  50 H50            6.3107     3.9413    -0.0674 H       
  51 H51            3.8515     3.9283    -0.0463 H       
  52 H52            2.6503    -4.6048     1.3659 H       
  53 H53            1.5093    -3.3855     0.7168 H       
  54 H54            3.9230    -4.6641    -0.6816 H       
  55 H55            2.2473    -4.4803    -1.2971 H       
  56 H56            2.4945    -2.1019    -1.5818 H       
  57 H57            4.1175    -2.6932    -2.0573 H       
  58 H58           -6.4650     1.2754     3.7254 H       
  59 H59           -4.9700     1.1490     2.7676 H       
  60 H60           -5.6465     2.7493     3.1546 H       
@<TRIPOS>BOND
   1    1    2 ar
   2    1    6 ar
   3    2    3 ar
   4    2   10 1
   5    3    4 ar
   6    4    5 ar
   7    4    7 1
   8    5    6 ar
   9    5    9 1
  10    6   34 1
  11    7    8 1
  12    7   12 1
  13    8    9 ar
  14    8   25 ar
  15    9   28 ar
  16   10   11 1
  17   10   35 1
  18   11   14 ar
  19   11   18 ar
  20   12   13 1
  21   12   32 1
  22   12   36 1
  23   13   30 1
  24   13   37 1
  25   13   38 1
  26   14   15 ar
  27   15   16 ar
  28   15   39 1
  29   16   17 ar
  30   16   19 1
  31   17   18 ar
  32   17   40 1
  33   18   41 1
  34   19   20 1
  35   19   24 1
  36   20   21 1
  37   20   42 1
  38   20   43 1
  39   21   22 1
  40   21   44 1
  41   21   45 1
  42   22   23 1
  43   22   46 1
  44   23   24 1
  45   23   47 1
  46   23   48 1
  47   24   33 1
  48   24   49 1
  49   25   26 ar
  50   25   29 1
  51   26   27 ar
  52   27   28 ar
  53   27   50 1
  54   28   51 1
  55   30   31 1
  56   30   52 1
  57   30   53 1
  58   31   32 1
  59   31   54 1
  60   31   55 1
  61   32   56 1
  62   32   57 1
  63   33   58 1
  64   33   59 1
  65   33   60 1

#	End of record

