#	Name: ASD08070341
#	Creating user name:	WinNT
#	Creation time:	15. 06. 2019 21:14

#	Modifying user name:	WinNT
#	Modification time:	15. 06. 2019 21:14

#	Program:	/corina/corina34_cracker 3.40 0067  02.08.2006

@<TRIPOS>MOLECULE
ASD08070341
  38   39    0    0    0
SMALL
NO_CHARGES


@<TRIPOS>ATOM
   1 C1            -0.0179     1.4713     0.0101 C.2     
   2 C2             0.0021    -0.0041     0.0020 C.ar    
   3 C3             0.0232    -0.7133     1.2074 C.ar    
   4 C4             0.0414    -2.0971     1.1917 C.ar    
   5 C5             0.0388    -2.7794    -0.0132 C.ar    
   6 C6             0.0184    -2.0842    -1.2106 C.ar    
   7 C7            -0.0058    -0.7004    -1.2110 C.ar    
   8 O8             1.0266     2.0935     0.0035 O.2     
   9 N9            -1.1942     2.1293     0.0193 N.am    
  10 C10           -1.2140     3.5941     0.0273 C.3     
  11 C11           -2.5310     4.0896    -0.5734 C.3     
  12 C12           -2.5518     5.6194    -0.5649 C.3     
  13 C13           -2.4262     6.1233     0.8742 C.3     
  14 C14           -1.1092     5.6278     1.4749 C.3     
  15 C15           -1.0884     4.0980     1.4665 C.3     
  16 C16           -2.6567     3.5858    -2.0125 C.3     
  17 C17            0.0587    -4.2863    -0.0215 C.3     
  18 F18           -0.0313    -0.0239    -2.3801 F       
  19 F19            0.0165    -2.7585    -2.3813 F       
  20 F20            0.0622    -2.7839     2.3549 F       
  21 F21            0.0262    -0.0493     2.3839 F       
  22 H22           -2.0275     1.6329     0.0205 H       
  23 H23           -0.3800     3.9721    -0.5640 H       
  24 H24           -3.3650     3.7117     0.0180 H       
  25 H25           -1.7178     5.9974    -1.1563 H       
  26 H26           -3.4901     5.9724    -0.9929 H       
  27 H27           -2.4410     7.2132     0.8802 H       
  28 H28           -3.2602     5.7454     1.4656 H       
  29 H29           -0.2752     6.0057     0.8836 H       
  30 H30           -1.0197     5.9867     2.5003 H       
  31 H31           -1.9224     3.7200     2.0579 H       
  32 H32           -0.1502     3.7450     1.8945 H       
  33 H33           -2.6419     2.4959    -2.0185 H       
  34 H34           -3.5949     3.9388    -2.4405 H       
  35 H35           -1.8227     3.9637    -2.6039 H       
  36 H36           -0.9641    -4.6632    -0.0136 H       
  37 H37            0.5686    -4.6380    -0.9184 H       
  38 H38            0.5859    -4.6475     0.8614 H       
@<TRIPOS>BOND
   1    1    2 1
   2    1    8 2
   3    1    9 am
   4    2    3 ar
   5    2    7 ar
   6    3    4 ar
   7    3   21 1
   8    4    5 ar
   9    4   20 1
  10    5    6 ar
  11    5   17 1
  12    6    7 ar
  13    6   19 1
  14    7   18 1
  15    9   10 1
  16    9   22 1
  17   10   11 1
  18   10   15 1
  19   10   23 1
  20   11   12 1
  21   11   16 1
  22   11   24 1
  23   12   13 1
  24   12   25 1
  25   12   26 1
  26   13   14 1
  27   13   27 1
  28   13   28 1
  29   14   15 1
  30   14   29 1
  31   14   30 1
  32   15   31 1
  33   15   32 1
  34   16   33 1
  35   16   34 1
  36   16   35 1
  37   17   36 1
  38   17   37 1
  39   17   38 1

#	End of record

