#	Name: ASD08150301
#	Creating user name:	WinNT
#	Creation time:	15. 06. 2019 21:15

#	Modifying user name:	WinNT
#	Modification time:	15. 06. 2019 21:15

#	Program:	/corina/corina34_cracker 3.40 0067  02.08.2006

@<TRIPOS>MOLECULE
ASD08150301
  39   40    0    0    0
SMALL
NO_CHARGES


@<TRIPOS>ATOM
   1 N1            -0.0178     1.4588     0.0101 N.3     
   2 O2             0.0021    -0.0041     0.0020 O.3     
   3 C3             1.3463     2.0038    -0.0000 C.3     
   4 C4             2.0425     1.6118    -1.3049 C.3     
   5 O5             1.8394     0.4970     3.3118 O.3     
   6 C6             2.4364    -0.4584     2.4251 C.3     
   7 O7             2.2777     0.0026     1.0728 O.3     
   8 C8             2.1302     1.4385     1.1860 C.3     
   9 C9             1.3193     1.5689     2.4996 C.3     
  10 C10            3.9251    -0.5998     2.7487 C.3     
  11 C11            1.7467    -1.8141     2.5903 C.3     
  12 C12           -0.8016     1.9808    -1.1173 C.3     
  13 C13           -2.2494     1.6017    -0.9408 C.ar    
  14 C14           -3.1058     2.4433    -0.2558 C.ar    
  15 C15           -4.4338     2.0955    -0.0938 C.ar    
  16 C16           -4.9056     0.9063    -0.6172 C.ar    
  17 C17           -4.0495     0.0650    -1.3030 C.ar    
  18 C18           -2.7224     0.4149    -1.4687 C.ar    
  19 H19           -0.8759    -0.4094     0.0082 H       
  20 H20            1.3041     3.0903     0.0771 H       
  21 H21            1.4841     2.0146    -2.1499 H       
  22 H22            3.0547     2.0163    -1.3124 H       
  23 H23            2.0848     0.5254    -1.3820 H       
  24 H24            3.1016     1.9246     1.2772 H       
  25 H25            0.2551     1.4278     2.3109 H       
  26 H26            1.5033     2.5340     2.9716 H       
  27 H27            4.0421    -0.9632     3.7696 H       
  28 H28            4.3818    -1.3072     2.0565 H       
  29 H29            4.4120     0.3705     2.6504 H       
  30 H30            0.6825    -1.7084     2.3792 H       
  31 H31            2.1851    -2.5317     1.8969 H       
  32 H32            1.8810    -2.1679     3.6125 H       
  33 H33           -0.7118     3.0666    -1.1504 H       
  34 H34           -0.4259     1.5567    -2.0484 H       
  35 H35           -2.7372     3.3725     0.1531 H       
  36 H36           -5.1027     2.7528     0.4419 H       
  37 H37           -5.9430     0.6342    -0.4901 H       
  38 H38           -4.4180    -0.8643    -1.7116 H       
  39 H39           -2.0544    -0.2406    -2.0076 H       
@<TRIPOS>BOND
   1    1    2 1
   2    1    3 1
   3    1   12 1
   4    2   19 1
   5    3    4 1
   6    3    8 1
   7    3   20 1
   8    4   21 1
   9    4   22 1
  10    4   23 1
  11    5    6 1
  12    5    9 1
  13    6    7 1
  14    6   10 1
  15    6   11 1
  16    7    8 1
  17    8    9 1
  18    8   24 1
  19    9   25 1
  20    9   26 1
  21   10   27 1
  22   10   28 1
  23   10   29 1
  24   11   30 1
  25   11   31 1
  26   11   32 1
  27   12   13 1
  28   12   33 1
  29   12   34 1
  30   13   14 ar
  31   13   18 ar
  32   14   15 ar
  33   14   35 1
  34   15   16 ar
  35   15   36 1
  36   16   17 ar
  37   16   37 1
  38   17   18 ar
  39   17   38 1
  40   18   39 1

#	End of record

