#	Name: ASD01913051
#	Creating user name:	WinNT
#	Creation time:	15. 06. 2019 20:00

#	Modifying user name:	WinNT
#	Modification time:	15. 06. 2019 20:00

#	Program:	/corina/corina34_cracker 3.40 0067  02.08.2006

@<TRIPOS>MOLECULE
ASD01913051
  42   44    0    0    0
SMALL
NO_CHARGES


@<TRIPOS>ATOM
   1 C1            -0.0173     1.4278     0.0099 C.ar    
   2 C2             0.0021    -0.0041     0.0020 C.1     
   3 C3             0.0180    -1.1779    -0.0044 C.1     
   4 C4             0.0374    -2.6098    -0.0123 C.ar    
   5 C5            -1.2371     2.1162     0.0311 C.ar    
   6 C6            -1.1609    -3.3278    -0.0047 C.ar    
   7 C7            -1.1339    -4.7091    -0.0129 C.ar    
   8 C8             0.0781    -5.3808    -0.0281 C.ar    
   9 C9             1.2678    -4.6742    -0.0356 C.ar    
  10 C10            1.2553    -3.2952    -0.0335 C.ar    
  11 N11            1.1232     2.1131     0.0027 N.ar    
  12 N12            1.1451     3.3964     0.0093 N.ar    
  13 C13            0.0422     4.1214     0.0237 C.ar    
  14 C14           -1.1991     3.5014     0.0378 C.ar    
  15 C15           -1.0236     6.2286    -0.7376 C.2     
  16 C16            0.1314     5.6258     0.0314 C.3     
  17 F17           -2.2912    -5.4062    -0.0056 F       
  18 N18           -1.5519     7.2550    -0.0490 N.am    
  19 C19           -0.8405     7.4704     1.2165 C.3     
  20 C20           -0.0438     6.1709     1.4677 C.3     
  21 O21           -1.4128     5.8449    -1.8203 O.2     
  22 C22            0.1131     8.6604     1.0919 C.3     
  23 C23           -1.8388     7.7072     2.3514 C.3     
  24 C24           -2.6912     8.0560    -0.5035 C.3     
  25 H25           -2.1771     1.5844     0.0415 H       
  26 H26           -2.1056    -2.8046     0.0078 H       
  27 H27            0.0943    -6.4606    -0.0337 H       
  28 H28            2.2087    -5.2042    -0.0475 H       
  29 H29            2.1851    -2.7458    -0.0394 H       
  30 H30           -2.1098     4.0819     0.0496 H       
  31 H31            1.0821     5.9528    -0.3897 H       
  32 H32           -0.6156     5.4754     2.0820 H       
  33 H33            0.9225     6.3877     1.9232 H       
  34 H34           -0.4580     9.5621     0.8709 H       
  35 H35            0.6532     8.7929     2.0293 H       
  36 H36            0.8236     8.4739     0.2865 H       
  37 H37           -2.5049     6.8485     2.4345 H       
  38 H38           -1.2985     7.8399     3.2888 H       
  39 H39           -2.4241     8.6020     2.1397 H       
  40 H40           -3.0309     7.6880    -1.4716 H       
  41 H41           -3.5024     7.9774     0.2202 H       
  42 H42           -2.3878     9.0987    -0.5973 H       
@<TRIPOS>BOND
   1    1    2 1
   2    1   11 ar
   3    1    5 ar
   4    2    3 3
   5    3    4 1
   6    4    6 ar
   7    4   10 ar
   8    5   14 ar
   9    5   25 1
  10    6    7 ar
  11    6   26 1
  12    7    8 ar
  13    7   17 1
  14    8    9 ar
  15    8   27 1
  16    9   10 ar
  17    9   28 1
  18   10   29 1
  19   11   12 ar
  20   12   13 ar
  21   13   14 ar
  22   13   16 1
  23   14   30 1
  24   15   16 1
  25   15   18 am
  26   15   21 2
  27   16   20 1
  28   16   31 1
  29   18   19 1
  30   18   24 1
  31   19   20 1
  32   19   22 1
  33   19   23 1
  34   20   32 1
  35   20   33 1
  36   22   34 1
  37   22   35 1
  38   22   36 1
  39   23   37 1
  40   23   38 1
  41   23   39 1
  42   24   40 1
  43   24   41 1
  44   24   42 1

#	End of record

