#	Name: ASD03320142
#	Creating user name:	WinNT
#	Creation time:	15. 06. 2019 20:36

#	Modifying user name:	WinNT
#	Modification time:	15. 06. 2019 20:36

#	Program:	/corina/corina34_cracker 3.40 0067  02.08.2006

@<TRIPOS>MOLECULE
ASD03320142
  37   39    0    0    0
SMALL
NO_CHARGES


@<TRIPOS>ATOM
   1 C1            -0.0181     1.4726     0.0148 C.2     
   2 C2             0.0015    -0.0045     0.0118 C.ar    
   3 C3             1.2176    -0.6868     0.0013 C.ar    
   4 C4             1.2283    -2.0782    -0.0010 C.ar    
   5 C5             0.0201    -2.7836     0.0072 C.ar    
   6 C6            -1.1828    -2.0997     0.0171 C.ar    
   7 C7            -1.1984    -0.7202     0.0252 C.ar    
   8 O8             1.0266     2.0944     0.0082 O.2     
   9 N9            -1.1942     2.1309     0.0193 N.am    
  10 N10            3.4561    -2.8094     0.9754 N.pl3   
  11 N11            4.5125    -3.6292     0.5596 N.2     
  12 C12            4.2318    -4.1089    -0.6254 C.2     
  13 C13            2.9855    -3.6194    -1.0221 C.2     
  14 C14            2.5140    -2.8098    -0.0126 C.2     
  15 F15            2.3560    -3.8910    -2.1862 F       
  16 F16            0.0278    -4.1346     0.0049 F       
  17 C17           -1.2149     3.5266     0.1327 C.ar    
  18 C18           -2.1833     4.2635    -0.5363 C.ar    
  19 C19           -2.2031     5.6397    -0.4240 C.ar    
  20 C20           -1.2559     6.2859     0.3568 C.ar    
  21 C21           -0.2882     5.5504     1.0254 C.ar    
  22 C22           -0.2706     4.1738     0.9187 C.ar    
  23 O23           -1.2757     7.6411     0.4665 O.3     
  24 C24           -0.2708     8.2403     1.2869 C.3     
  25 F25           -0.3860     7.7556     2.5942 F       
  26 F26            0.9944     7.9226     0.7815 F       
  27 Cl27          -0.4851    10.0305     1.2886 Cl      
  28 H28            2.1475    -0.1374    -0.0053 H       
  29 H29           -2.1131    -2.6481     0.0226 H       
  30 H30           -2.1404    -0.1922     0.0378 H       
  31 H31           -2.0262     1.6380    -0.0560 H       
  32 H32            3.4016    -2.3301     1.8170 H       
  33 H33            4.8597    -4.7730    -1.2008 H       
  34 H34           -2.9205     3.7606    -1.1445 H       
  35 H35           -2.9559     6.2130    -0.9445 H       
  36 H36            0.4488     6.0542     1.6331 H       
  37 H37            0.4798     3.6009     1.4431 H       
@<TRIPOS>BOND
   1    1    2 1
   2    1    8 2
   3    1    9 am
   4    2    3 ar
   5    2    7 ar
   6    3    4 ar
   7    3   28 1
   8    4    5 ar
   9    4   14 1
  10    5    6 ar
  11    5   16 1
  12    6    7 ar
  13    6   29 1
  14    7   30 1
  15    9   17 1
  16    9   31 1
  17   10   11 1
  18   10   14 1
  19   10   32 1
  20   11   12 2
  21   12   13 1
  22   12   33 1
  23   13   14 2
  24   13   15 1
  25   17   18 ar
  26   17   22 ar
  27   18   19 ar
  28   18   34 1
  29   19   20 ar
  30   19   35 1
  31   20   21 ar
  32   20   23 1
  33   21   22 ar
  34   21   36 1
  35   22   37 1
  36   23   24 1
  37   24   25 1
  38   24   26 1
  39   24   27 1

#	End of record

