#	Name: ASD01914194
#	Creating user name:	WinNT
#	Creation time:	15. 06. 2019 20:03

#	Modifying user name:	WinNT
#	Modification time:	15. 06. 2019 20:03

#	Program:	/corina/corina34_cracker 3.40 0067  02.08.2006

@<TRIPOS>MOLECULE
ASD01914194
  36   37    0    0    0
SMALL
NO_CHARGES


@<TRIPOS>ATOM
   1 C1            -0.0226     1.4746     0.0050 C.2     
   2 C2             0.0077    -0.0036     0.0006 C.ar    
   3 C3             1.0001    -0.6821    -0.7086 C.ar    
   4 C4             1.0226    -2.0625    -0.7085 C.ar    
   5 C5             0.0629    -2.7731    -0.0070 C.ar    
   6 C6            -0.9227    -2.1057     0.6975 C.ar    
   7 C7            -0.9524    -0.7262     0.7103 C.ar    
   8 O8             1.0172     2.1038    -0.0099 O.2     
   9 N9            -1.2033     2.1243     0.0198 N.am    
  10 C10           -1.2348     3.5837     0.1439 C.3     
  11 C11           -1.1960     4.2149    -1.2493 C.3     
  12 C12           -1.2277     5.6813    -1.1246 C.1     
  13 C13           -1.2529     6.8508    -1.0252 C.1     
  14 C14           -1.2837     8.2773    -0.9039 C.ar    
  15 C15           -1.2568     9.0705    -2.0517 C.ar    
  16 C16           -1.2871    10.4472    -1.9178 C.ar    
  17 C17           -1.3433    10.9880    -0.6406 C.ar    
  18 C18           -1.3673    10.1433     0.4538 C.ar    
  19 N19           -1.3430     8.8352     0.2998 N.ar    
  20 C20           -2.4553     1.3712    -0.0881 C.3     
  21 Cl21           2.2557    -2.9091    -1.5897 Cl      
  22 H22            1.7484    -0.1286    -1.2565 H       
  23 H23            0.0840    -3.8529    -0.0103 H       
  24 H24           -1.6684    -2.6657     1.2423 H       
  25 H25           -1.7200    -0.2067     1.2646 H       
  26 H26           -2.1496     3.8853     0.6541 H       
  27 H27           -0.3711     3.9182     0.7185 H       
  28 H28           -0.2813     3.9133    -1.7595 H       
  29 H29           -2.0598     3.8804    -1.8239 H       
  30 H30           -1.2126     8.6162    -3.0305 H       
  31 H31           -1.2671    11.0869    -2.7877 H       
  32 H32           -1.3677    12.0589    -0.5029 H       
  33 H33           -1.4107    10.5617     1.4486 H       
  34 H34           -2.7569     1.0242     0.9002 H       
  35 H35           -3.2323     2.0151    -0.4999 H       
  36 H36           -2.3081     0.5138    -0.7449 H       
@<TRIPOS>BOND
   1    1    2 1
   2    1    8 2
   3    1    9 am
   4    2    3 ar
   5    2    7 ar
   6    3    4 ar
   7    3   22 1
   8    4    5 ar
   9    4   21 1
  10    5    6 ar
  11    5   23 1
  12    6    7 ar
  13    6   24 1
  14    7   25 1
  15    9   10 1
  16    9   20 1
  17   10   11 1
  18   10   26 1
  19   10   27 1
  20   11   12 1
  21   11   28 1
  22   11   29 1
  23   12   13 3
  24   13   14 1
  25   14   15 ar
  26   14   19 ar
  27   15   16 ar
  28   15   30 1
  29   16   17 ar
  30   16   31 1
  31   17   18 ar
  32   17   32 1
  33   18   19 ar
  34   18   33 1
  35   20   34 1
  36   20   35 1
  37   20   36 1

#	End of record

