#	Name: ASD01901033
#	Creating user name:	WinNT
#	Creation time:	15. 06. 2019 19:53

#	Modifying user name:	WinNT
#	Modification time:	15. 06. 2019 19:53

#	Program:	/corina/corina34_cracker 3.40 0067  02.08.2006

@<TRIPOS>MOLECULE
ASD01901033
  29   30    0    0    0
SMALL
NO_CHARGES


@<TRIPOS>ATOM
   1 C1            -0.0159     1.3190     0.0093 C.ar    
   2 N2             0.0021    -0.0041     0.0020 N.ar    
   3 C3             1.1600    -0.6667    -0.0126 C.ar    
   4 C4             2.3576     0.0618    -0.0202 C.ar    
   5 C5             2.2877     1.4420    -0.0121 C.ar    
   6 N6             1.1017     2.0314     0.0024 N.ar    
   7 N7            -1.2340     1.9764     0.0186 N.pl3   
   8 C8             1.1797    -2.1389    -0.0203 C.2     
   9 C9             0.0253    -2.8262    -0.0124 C.2     
  10 C10            0.0450    -4.2996    -0.0200 C.ar    
  11 C11           -1.1538    -5.0179    -0.0119 C.ar    
  12 C12           -1.1275    -6.3968    -0.0191 C.ar    
  13 C13            0.0819    -7.0691    -0.0338 C.ar    
  14 C14            1.2730    -6.3646    -0.0419 C.ar    
  15 C15            1.2624    -4.9855    -0.0412 C.ar    
  16 C16            0.1020    -8.5760    -0.0406 C.3     
  17 H17            3.3120    -0.4435    -0.0317 H       
  18 H18            3.1910     2.0340    -0.0173 H       
  19 H19           -2.0597     1.4674     0.0197 H       
  20 H20           -1.2618     2.9459     0.0240 H       
  21 H21            2.1221    -2.6664    -0.0321 H       
  22 H22           -0.9171    -2.2988    -0.0006 H       
  23 H23           -2.0985    -4.4945     0.0002 H       
  24 H24           -2.0531    -6.9532    -0.0129 H       
  25 H25            2.2131    -6.8961    -0.0530 H       
  26 H26            2.1927    -4.4370    -0.0524 H       
  27 H27            0.0969    -8.9348    -1.0698 H       
  28 H28            1.0018    -8.9296     0.4630 H       
  29 H29           -0.7780    -8.9534     0.4802 H       
@<TRIPOS>BOND
   1    1    2 ar
   2    1    6 ar
   3    1    7 1
   4    2    3 ar
   5    3    4 ar
   6    3    8 1
   7    4    5 ar
   8    4   17 1
   9    5    6 ar
  10    5   18 1
  11    7   19 1
  12    7   20 1
  13    8    9 2
  14    8   21 1
  15    9   10 1
  16    9   22 1
  17   10   11 ar
  18   10   15 ar
  19   11   12 ar
  20   11   23 1
  21   12   13 ar
  22   12   24 1
  23   13   14 ar
  24   13   16 1
  25   14   15 ar
  26   14   25 1
  27   15   26 1
  28   16   27 1
  29   16   28 1
  30   16   29 1

#	End of record

