#	Name: ASD01903184
#	Creating user name:	WinNT
#	Creation time:	15. 06. 2019 19:54

#	Modifying user name:	WinNT
#	Modification time:	15. 06. 2019 19:54

#	Program:	/corina/corina34_cracker 3.40 0067  02.08.2006

@<TRIPOS>MOLECULE
ASD01903184
  26   28    0    0    0
SMALL
NO_CHARGES


@<TRIPOS>ATOM
   1 S1            -0.0242     1.7573    -0.0304 S.3     
   2 C2             0.0013    -0.0032    -0.0098 C.2     
   3 N3             1.2300    -0.4176    -0.0142 N.2     
   4 C4             2.1804     0.5165    -0.0324 C.2     
   5 C5             1.7374     1.7859    -0.0440 C.2     
   6 N6            -1.1204    -0.8210     0.0088 N.pl3   
   7 C7            -2.3880    -0.2605     0.1288 C.ar    
   8 N8            -2.5126     1.0427     0.3306 N.ar    
   9 C9            -3.6977     1.6143     0.4501 C.ar    
  10 C10           -4.8577     0.8640     0.3677 C.ar    
  11 C11           -4.7678    -0.5045     0.1570 C.ar    
  12 C12           -3.5124    -1.0728     0.0303 C.ar    
  13 C13            3.6270     0.1791    -0.0389 C.2     
  14 C14            4.6437     0.8891    -0.7058 C.2     
  15 N15            5.7803     0.2866    -0.4740 N.2     
  16 N16            5.5364    -0.8235     0.3438 N.pl3   
  17 C17            4.2120    -0.8712     0.6049 C.2     
  18 F18            2.5106     2.8936    -0.0638 F       
  19 F19           -3.7782     2.9472     0.6556 F       
  20 H20           -1.0203    -1.7833    -0.0620 H       
  21 H21           -5.8228     1.3387     0.4668 H       
  22 H22           -5.6581    -1.1121     0.0889 H       
  23 H23           -3.4070    -2.1348    -0.1348 H       
  24 H24            4.5079     1.7772    -1.3052 H       
  25 H25            6.2034    -1.4480     0.6694 H       
  26 H26            3.7070    -1.6108     1.2086 H       
@<TRIPOS>BOND
   1    1    2 1
   2    1    5 1
   3    2    3 2
   4    2    6 1
   5    3    4 1
   6    4    5 2
   7    4   13 1
   8    5   18 1
   9    6    7 1
  10    6   20 1
  11    7    8 ar
  12    7   12 ar
  13    8    9 ar
  14    9   10 ar
  15    9   19 1
  16   10   11 ar
  17   10   21 1
  18   11   12 ar
  19   11   22 1
  20   12   23 1
  21   13   14 1
  22   13   17 2
  23   14   15 2
  24   14   24 1
  25   15   16 1
  26   16   17 1
  27   16   25 1
  28   17   26 1

#	End of record

