#	Name: ASD01128002
#	Creating user name:	WinNT
#	Creation time:	15. 06. 2019 18:59

#	Modifying user name:	WinNT
#	Modification time:	15. 06. 2019 18:59

#	Program:	/corina/corina34_cracker 3.40 0067  02.08.2006

@<TRIPOS>MOLECULE
ASD01128002
   1    0    0    0    0
SMALL
NO_CHARGES


@<TRIPOS>ATOM
   1 Tl1            0.0000     0.0000     0.0000 Du      
@<TRIPOS>BOND

#	End of record

