#	Name: ASD01200341
#	Creating user name:	WinNT
#	Creation time:	15. 06. 2019 19:09

#	Modifying user name:	WinNT
#	Modification time:	15. 06. 2019 19:09

#	Program:	/corina/corina34_cracker 3.40 0067  02.08.2006

@<TRIPOS>MOLECULE
ASD01200341
  49   52    0    0    0
SMALL
NO_CHARGES


@<TRIPOS>ATOM
   1 C1            -0.0168     1.3862     0.0097 C.ar    
   2 C2             0.0021    -0.0041     0.0020 C.ar    
   3 C3             1.1941    -0.6928    -0.0127 C.ar    
   4 C4             2.3999     0.0107    -0.0205 C.ar    
   5 N5             3.5966    -0.6289    -0.0345 N.2     
   6 C6             4.7179     0.0252    -0.0413 C.2     
   7 N7             4.7917     1.3822    -0.0346 N.am    
   8 C8             6.1018     2.0378    -0.0431 C.3     
   9 C9             6.8921     1.6143     1.1966 C.3     
  10 C10            6.1880     2.1330     2.4521 C.3     
  11 C11            6.9075     1.6055     3.6950 C.3     
  12 C12            6.2034     2.1242     4.9505 C.3     
  13 C13            6.2314     3.6539     4.9557 C.3     
  14 C14            5.5119     4.1814     3.7127 C.3     
  15 C15            6.2160     3.6627     2.4573 C.3     
  16 C16            6.8576     1.6341    -1.2828 C.2     
  17 O17            6.3517     0.8735    -2.0807 O.2     
  18 N18            8.0957     2.1181    -1.5048 N.am    
  19 C19            8.7928     1.7457    -2.6483 C.2     
  20 N20            9.9845     2.1518    -2.9565 N.2     
  21 C21           10.4979     1.6967    -4.0841 C.2     
  22 C22            9.7020     0.8665    -4.7608 C.2     
  23 S23            8.2061     0.6796    -3.8492 S.3     
  24 C24            3.6660     2.1334    -0.0206 C.2     
  25 O25            3.7175     3.3496    -0.0149 O.2     
  26 C26            2.3783     1.4232    -0.0131 C.ar    
  27 C27            1.1626     2.1030     0.0023 C.ar    
  28 F28           -1.1988     2.0405     0.0188 F       
  29 H29           -0.9296    -0.5503     0.0080 H       
  30 H30            1.1964    -1.7728    -0.0178 H       
  31 H31            5.6394    -0.5379    -0.0525 H       
  32 H32            5.9668     3.1194    -0.0360 H       
  33 H33            6.9507     0.5266     1.2361 H       
  34 H34            7.8981     2.0308     1.1460 H       
  35 H35            5.1539     1.7885     2.4572 H       
  36 H36            6.8876     0.5157     3.6913 H       
  37 H37            7.9416     1.9500     3.6899 H       
  38 H38            5.1693     1.7797     4.9556 H       
  39 H39            6.7160     1.7484     5.8360 H       
  40 H40            5.7298     4.0235     5.8501 H       
  41 H41            7.2655     3.9985     4.9505 H       
  42 H42            4.4778     3.8369     3.7179 H       
  43 H43            5.5318     5.2712     3.7164 H       
  44 H44            7.2501     4.0072     2.4521 H       
  45 H45            5.7034     4.0385     1.5718 H       
  46 H46            8.5003     2.7264    -0.8667 H       
  47 H47           11.4824     1.9738    -4.4310 H       
  48 H48            9.9357     0.3891    -5.7010 H       
  49 H49            1.1431     3.1828     0.0086 H       
@<TRIPOS>BOND
   1    1    2 ar
   2    1   27 ar
   3    1   28 1
   4    2    3 ar
   5    2   29 1
   6    3    4 ar
   7    3   30 1
   8    4    5 1
   9    4   26 ar
  10    5    6 2
  11    6    7 1
  12    6   31 1
  13    7    8 1
  14    7   24 am
  15    8    9 1
  16    8   16 1
  17    8   32 1
  18    9   10 1
  19    9   33 1
  20    9   34 1
  21   10   11 1
  22   10   15 1
  23   10   35 1
  24   11   12 1
  25   11   36 1
  26   11   37 1
  27   12   13 1
  28   12   38 1
  29   12   39 1
  30   13   14 1
  31   13   40 1
  32   13   41 1
  33   14   15 1
  34   14   42 1
  35   14   43 1
  36   15   44 1
  37   15   45 1
  38   16   17 2
  39   16   18 am
  40   18   19 1
  41   18   46 1
  42   19   20 2
  43   19   23 1
  44   20   21 1
  45   21   22 2
  46   21   47 1
  47   22   23 1
  48   22   48 1
  49   24   25 2
  50   24   26 1
  51   26   27 ar
  52   27   49 1

#	End of record

