#	Name: ASD01813499
#	Creating user name:	WinNT
#	Creation time:	15. 06. 2019 19:30

#	Modifying user name:	WinNT
#	Modification time:	15. 06. 2019 19:30

#	Program:	/corina/corina34_cracker 3.40 0067  02.08.2006

@<TRIPOS>MOLECULE
ASD01813499
  50   53    0    0    0
SMALL
NO_CHARGES


@<TRIPOS>ATOM
   1 C1             0.0548     1.4018    -0.0626 C.ar    
   2 C2             0.0612     0.0144    -0.0675 C.ar    
   3 C3             1.2506    -0.6844    -0.0628 C.ar    
   4 C4             2.4627     0.0052    -0.0530 C.ar    
   5 C5             2.4514     1.4099    -0.0481 C.ar    
   6 C6             1.2406     2.1025    -0.0529 C.ar    
   7 N7             3.6587    -0.6807    -0.0472 N.pl3   
   8 C8             4.8478    -0.0655    -0.0365 C.2     
   9 C9             4.9642     1.3101    -0.0304 C.2     
  10 C10            3.7402     2.1272    -0.0378 C.2     
  11 O11            3.7893     3.3447    -0.0331 O.2     
  12 C12            6.2883     1.9478    -0.0175 C.2     
  13 O13            6.3889     3.2921    -0.0116 O.3     
  14 O14            7.2927     1.2631    -0.0122 O.2     
  15 C15            3.6271    -2.1454    -0.0526 C.3     
  16 C16            3.4773    -2.6394    -1.4685 C.ar    
  17 N17            2.2735    -2.7335    -1.9991 N.ar    
  18 C18            2.0885    -3.1589    -3.2321 C.ar    
  19 C19            3.1732    -3.5279    -4.0252 C.ar    
  20 C20            4.4622    -3.4393    -3.4913 C.ar    
  21 C21            4.6048    -2.9816    -2.1929 C.ar    
  22 C22            2.9636    -4.0071    -5.4130 C.ar    
  23 F23            1.2412    -2.0354    -0.0672 F       
  24 C24            2.0278    -5.0139    -5.6753 C.ar    
  25 C25            1.8385    -5.4552    -6.9769 C.ar    
  26 C26            2.5719    -4.9017    -8.0084 C.ar    
  27 C27            3.4984    -3.9061    -7.7513 C.ar    
  28 C28            3.6931    -3.4532    -6.4623 C.ar    
  29 N29            1.2872    -5.5728    -4.6303 N.am    
  30 C30            0.0144    -5.9632    -4.8400 C.2     
  31 C31           -0.7441    -6.6767    -3.7506 C.3     
  32 O32           -0.5205    -5.7404    -5.9055 O.2     
  33 H33           -0.8844     1.9349    -0.0709 H       
  34 H34           -0.8749    -0.5241    -0.0747 H       
  35 H35            1.2330     3.1824    -0.0495 H       
  36 H36            5.7458    -0.6654    -0.0321 H       
  37 H37            7.2809     3.6655    -0.0032 H       
  38 H38            4.5550    -2.5304     0.3702 H       
  39 H39            2.7840    -2.4928     0.5445 H       
  40 H40            1.0872    -3.2226    -3.6317 H       
  41 H41            5.3250    -3.7172    -4.0784 H       
  42 H42            5.5853    -2.9001    -1.7475 H       
  43 H43            1.1176    -6.2323    -7.1837 H       
  44 H44            2.4218    -5.2478    -9.0204 H       
  45 H45            4.0682    -3.4791    -8.5633 H       
  46 H46            4.4171    -2.6762    -6.2661 H       
  47 H47            1.6893    -5.6798    -3.7541 H       
  48 H48           -0.1049    -6.7858    -2.8745 H       
  49 H49           -1.6289    -6.0981    -3.4851 H       
  50 H50           -1.0471    -7.6622    -4.1044 H       
@<TRIPOS>BOND
   1    1    2 ar
   2    1    6 ar
   3    1   33 1
   4    2    3 ar
   5    2   34 1
   6    3    4 ar
   7    3   23 1
   8    4    5 ar
   9    4    7 1
  10    5    6 ar
  11    5   10 1
  12    6   35 1
  13    7    8 1
  14    7   15 1
  15    8    9 2
  16    8   36 1
  17    9   10 1
  18    9   12 1
  19   10   11 2
  20   12   13 1
  21   12   14 2
  22   13   37 1
  23   15   16 1
  24   15   38 1
  25   15   39 1
  26   16   17 ar
  27   16   21 ar
  28   17   18 ar
  29   18   19 ar
  30   18   40 1
  31   19   20 ar
  32   19   22 1
  33   20   21 ar
  34   20   41 1
  35   21   42 1
  36   22   24 ar
  37   22   28 ar
  38   24   25 ar
  39   24   29 1
  40   25   26 ar
  41   25   43 1
  42   26   27 ar
  43   26   44 1
  44   27   28 ar
  45   27   45 1
  46   28   46 1
  47   29   30 am
  48   29   47 1
  49   30   31 1
  50   30   32 2
  51   31   48 1
  52   31   49 1
  53   31   50 1

#	End of record

