#	Name: ASD02508120
#	Creating user name:	WinNT
#	Creation time:	15. 06. 2019 20:23

#	Modifying user name:	WinNT
#	Modification time:	15. 06. 2019 20:23

#	Program:	/corina/corina34_cracker 3.40 0067  02.08.2006

@<TRIPOS>MOLECULE
ASD02508120
  46   48    0    0    0
SMALL
NO_CHARGES


@<TRIPOS>ATOM
   1 C1            -0.0167     1.3814     0.0096 C.ar    
   2 C2             0.0021    -0.0041     0.0020 C.ar    
   3 C3             1.1798     2.0988     0.0021 C.ar    
   4 C4             2.3882     1.4216    -0.0135 C.ar    
   5 C5             2.4027     0.0342    -0.0215 C.ar    
   6 C6             1.2083    -0.6765    -0.0131 C.ar    
   7 N7            -1.0468     2.3253     0.0189 N.am    
   8 C8            -0.4762     3.5463     0.0233 C.2     
   9 O9             0.8596     3.4161     0.0122 O.3     
  10 N10            3.6223    -0.6509    -0.0377 N.am    
  11 S11            4.2685    -1.1573    -1.4759 S.o2    
  12 C12            5.2917     0.1459    -2.0756 C.ar    
  13 C13            4.7281     1.3617    -2.4352 C.ar    
  14 O14           -1.0785     4.6027     0.0311 O.2     
  15 O15            5.1365    -2.2391    -1.1670 O.2     
  16 O16            3.1834    -1.2670    -2.3868 O.2     
  17 C17            6.6561    -0.0402    -2.1827 C.ar    
  18 C18            7.4597     0.9823    -2.6529 C.ar    
  19 C19            6.9000     2.1929    -3.0168 C.ar    
  20 C20            5.5363     2.3856    -2.9069 C.ar    
  21 O21            3.3865     1.5490    -2.3258 O.3     
  22 C22            2.8759     2.8259    -2.7141 C.3     
  23 C23            8.9482     0.7768    -2.7684 C.3     
  24 C24           -2.4837     2.0401     0.0227 C.3     
  25 C25            1.2296    -2.1833    -0.0219 C.3     
  26 C26            4.3278    -0.9203     1.2176 C.3     
  27 H27           -0.9254    -0.5574     0.0083 H       
  28 H28            3.3172     1.9725    -0.0198 H       
  29 H29            7.0958    -0.9848    -1.8988 H       
  30 H30            7.5298     2.9900    -3.3834 H       
  31 H31            5.0995     3.3315    -3.1914 H       
  32 H32            1.7946     2.8416    -2.5777 H       
  33 H33            3.3311     3.6018    -2.0985 H       
  34 H34            3.1126     3.0084    -3.7623 H       
  35 H35            9.1848     0.3818    -3.7563 H       
  36 H36            9.4586     1.7293    -2.6261 H       
  37 H37            9.2776     0.0706    -2.0062 H       
  38 H38           -2.8362     1.9635     1.0513 H       
  39 H39           -3.0153     2.8453    -0.4845 H       
  40 H40           -2.6688     1.0994    -0.4958 H       
  41 H41            1.2454    -2.5524     1.0036 H       
  42 H42            0.3395    -2.5563    -0.5286 H       
  43 H43            2.1192    -2.5311    -0.5470 H       
  44 H44            4.0023    -1.8803     1.6185 H       
  45 H45            5.4015    -0.9494     1.0319 H       
  46 H46            4.1046    -0.1319     1.9363 H       
@<TRIPOS>BOND
   1    1    2 ar
   2    1    3 ar
   3    1    7 1
   4    2    6 ar
   5    2   27 1
   6    3    4 ar
   7    3    9 1
   8    4    5 ar
   9    4   28 1
  10    5    6 ar
  11    5   10 1
  12    6   25 1
  13    7    8 am
  14    7   24 1
  15    8    9 1
  16    8   14 2
  17   10   11 am
  18   10   26 1
  19   11   12 1
  20   11   15 2
  21   11   16 2
  22   12   13 ar
  23   12   17 ar
  24   13   21 1
  25   13   20 ar
  26   17   18 ar
  27   17   29 1
  28   18   19 ar
  29   18   23 1
  30   19   20 ar
  31   19   30 1
  32   20   31 1
  33   21   22 1
  34   22   32 1
  35   22   33 1
  36   22   34 1
  37   23   35 1
  38   23   36 1
  39   23   37 1
  40   24   38 1
  41   24   39 1
  42   24   40 1
  43   25   41 1
  44   25   42 1
  45   25   43 1
  46   26   44 1
  47   26   45 1
  48   26   46 1

#	End of record

