#	Name: ASD08150013
#	Creating user name:	WinNT
#	Creation time:	15. 06. 2019 21:15

#	Modifying user name:	WinNT
#	Modification time:	15. 06. 2019 21:15

#	Program:	/corina/corina34_cracker 3.40 0067  02.08.2006

@<TRIPOS>MOLECULE
ASD08150013
  46   50    0    0    0
SMALL
NO_CHARGES


@<TRIPOS>ATOM
   1 N1             0.0390     1.3213    -0.3187 N.2     
   2 C2             0.0801     0.0351    -0.4915 C.2     
   3 N3             1.1789    -0.7207    -0.2224 N.am    
   4 C4             2.3098    -0.1474     0.2510 C.2     
   5 C5             2.2956     1.3080     0.4577 C.ar    
   6 C6             3.4080     1.9945     0.9408 C.ar    
   7 C7             3.3403     3.3593     1.1154 C.ar    
   8 C8             2.1753     4.0529     0.8144 C.ar    
   9 C9             1.0652     3.3937     0.3366 C.ar    
  10 C10            1.1091     2.0103     0.1506 C.ar    
  11 O11            3.3002    -0.8112     0.4965 O.2     
  12 C12           -1.1521    -0.6557    -1.0164 C.3     
  13 S13           -2.4067     0.5812    -1.4314 S.3     
  14 N14           -5.4239     1.3140    -2.5674 N.2     
  15 C15           -6.6330     1.2499    -3.0447 C.2     
  16 N16           -6.9802    -0.0507    -3.2600 N.pl3   
  17 C17           -5.9122    -0.8281    -2.8894 C.ar    
  18 N18           -5.6630    -2.1336    -2.8719 N.ar    
  19 C19           -4.5037    -2.5901    -2.4464 C.ar    
  20 N20           -3.5408    -1.7930    -2.0215 N.ar    
  21 C21           -3.6984    -0.4727    -2.0019 C.ar    
  22 C22           -4.9199     0.0625    -2.4466 C.ar    
  23 C23            1.1393    -2.1042    -0.4368 C.ar    
  24 C24            0.7195    -2.9528     0.5780 C.ar    
  25 C25            0.6817    -4.3212     0.3622 C.ar    
  26 C26            1.0634    -4.8398    -0.8675 C.ar    
  27 C27            1.4810    -3.9934    -1.8766 C.ar    
  28 C28            1.5146    -2.6281    -1.6670 C.ar    
  29 O29            0.2716    -5.1549     1.3540 O.3     
  30 C30            0.2577    -6.5536     1.0615 C.3     
  31 H31            4.3165     1.4603     1.1768 H       
  32 H32            4.2004     3.8944     1.4898 H       
  33 H33            2.1397     5.1229     0.9573 H       
  34 H34            0.1646     3.9437     0.1067 H       
  35 H35           -0.8961    -1.2270    -1.9087 H       
  36 H36           -1.5439    -1.3289    -0.2539 H       
  37 H37           -7.2676     2.1014    -3.2411 H       
  38 H38           -7.8270    -0.3682    -3.6108 H       
  39 H39           -4.3339    -3.6567    -2.4451 H       
  40 H40            0.4233    -2.5475     1.5342 H       
  41 H41            1.0342    -5.9063    -1.0356 H       
  42 H42            1.7775    -4.3994    -2.8325 H       
  43 H43            1.8368    -1.9683    -2.4590 H       
  44 H44           -0.4133    -6.7429     0.2236 H       
  45 H45            1.2645    -6.8805     0.8017 H       
  46 H46           -0.0888    -7.1042     1.9360 H       
@<TRIPOS>BOND
   1    1    2 2
   2    1   10 1
   3    2    3 1
   4    2   12 1
   5    3    4 am
   6    3   23 1
   7    4    5 1
   8    4   11 2
   9    5    6 ar
  10    5   10 ar
  11    6    7 ar
  12    6   31 1
  13    7    8 ar
  14    7   32 1
  15    8    9 ar
  16    8   33 1
  17    9   10 ar
  18    9   34 1
  19   12   13 1
  20   12   35 1
  21   12   36 1
  22   13   21 1
  23   14   15 2
  24   14   22 1
  25   15   16 1
  26   15   37 1
  27   16   17 1
  28   16   38 1
  29   17   18 ar
  30   17   22 ar
  31   18   19 ar
  32   19   20 ar
  33   19   39 1
  34   20   21 ar
  35   21   22 ar
  36   23   24 ar
  37   23   28 ar
  38   24   25 ar
  39   24   40 1
  40   25   26 ar
  41   25   29 1
  42   26   27 ar
  43   26   41 1
  44   27   28 ar
  45   27   42 1
  46   28   43 1
  47   29   30 1
  48   30   44 1
  49   30   45 1
  50   30   46 1

#	End of record

