#	Name: ASD03331414
#	Creating user name:	WinNT
#	Creation time:	15. 06. 2019 20:39

#	Modifying user name:	WinNT
#	Modification time:	15. 06. 2019 20:39

#	Program:	/corina/corina34_cracker 3.40 0067  02.08.2006

@<TRIPOS>MOLECULE
ASD03331414
  74   78    0    0    0
SMALL
NO_CHARGES


@<TRIPOS>ATOM
   1 N1            -0.5849     1.8544    -1.1434 N.am    
   2 C2            -0.3488     0.4249    -1.3869 C.3     
   3 C3            -0.7947     0.0874    -2.8131 C.3     
   4 C4            -0.0853     1.0185    -3.7989 C.3     
   5 C5            -0.4726     2.4691    -3.5022 C.3     
   6 C6            -0.0230     2.8335    -2.0838 C.3     
   7 C7             1.4064     0.8580    -3.6565 C.2     
   8 O8             2.1049     1.8299    -3.4607 O.2     
   9 N9             1.9641    -0.3656    -3.7466 N.am    
  10 C10           -1.3079     2.2597    -0.0806 C.2     
  11 O11           -1.8519     1.4391     0.6335 O.2     
  12 N12           -2.2968     5.6696     0.7395 N.pl3   
  13 C13           -2.6008     4.3633     0.5421 C.2     
  14 C14           -1.4392     3.6965     0.2162 C.2     
  15 C15           -0.3937     4.6562     0.2206 C.2     
  16 C16           -0.9480     5.8525     0.5438 C.2     
  17 C17           -3.9711     3.7470     0.6587 C.3     
  18 C18           -4.6737     3.8052    -0.6992 C.3     
  19 C19           -6.0649     3.1795    -0.5808 C.3     
  20 C20           -6.7675     3.2377    -1.9387 C.3     
  21 O21           -8.0668     2.6533    -1.8281 O.3     
  22 C22           -0.2233     7.1359     0.6654 C.ar    
  23 C23            0.9385     7.2149     1.4367 C.ar    
  24 C24            1.6104     8.4158     1.5457 C.ar    
  25 C25            1.1344     9.5400     0.8922 C.ar    
  26 C26           -0.0169     9.4673     0.1267 C.ar    
  27 C27           -0.6942     8.2713     0.0054 C.ar    
  28 Cl28           1.9846    11.0469     1.0338 Cl      
  29 Cl29           1.5357     5.8062     2.2569 Cl      
  30 C30           -3.2119     6.6742     1.0823 C.ar    
  31 C31           -3.1578     7.2651     2.3376 C.ar    
  32 C32           -4.0604     8.2552     2.6729 C.ar    
  33 C33           -5.0181     8.6584     1.7590 C.ar    
  34 C34           -5.0744     8.0707     0.5074 C.ar    
  35 C35           -4.1704     7.0841     0.1653 C.ar    
  36 Cl36          -6.1512     9.9032     2.1835 Cl      
  37 C37           -0.4957     0.6670    -5.2057 C.ar    
  38 C38           -0.0511     1.4332    -6.2670 C.ar    
  39 C39           -0.4272     1.1113    -7.5575 C.ar    
  40 C40           -1.2488     0.0221    -7.7869 C.ar    
  41 C41           -1.6935    -0.7443    -6.7243 C.ar    
  42 C42           -1.3121    -0.4248    -5.4348 C.ar    
  43 Cl43          -1.7221    -0.3825    -9.4074 Cl      
  44 H44            0.7130     0.2055    -1.2745 H       
  45 H45           -0.9236    -0.1670    -0.6746 H       
  46 H46           -0.5368    -0.9471    -3.0398 H       
  47 H47           -1.8732     0.2210    -2.8983 H       
  48 H48            0.0146     3.1297    -4.2193 H       
  49 H49           -1.5541     2.5802    -3.5808 H       
  50 H50           -0.3829     3.8309    -1.8313 H       
  51 H51            1.0654     2.8106    -2.0283 H       
  52 H52            1.4158    -1.1331    -3.9730 H       
  53 H53            2.9138    -0.4788    -3.5851 H       
  54 H54            0.6483     4.4696     0.0065 H       
  55 H55           -3.8765     2.7080     0.9746 H       
  56 H56           -4.5562     4.2987     1.3945 H       
  57 H57           -4.7682     4.8441    -1.0151 H       
  58 H58           -4.0886     3.2535    -1.4350 H       
  59 H59           -5.9703     2.1405    -0.2649 H       
  60 H60           -6.6500     3.7311     0.1550 H       
  61 H61           -6.8620     4.2766    -2.2546 H       
  62 H62           -6.1824     2.6860    -2.6745 H       
  63 H63           -8.5708     2.6558    -2.6534 H       
  64 H64            2.5086     8.4788     2.1419 H       
  65 H65           -0.3833    10.3477    -0.3802 H       
  66 H66           -1.5895     8.2152    -0.5960 H       
  67 H67           -2.4107     6.9506     3.0513 H       
  68 H68           -4.0189     8.7150     3.6493 H       
  69 H69           -5.8229     8.3868    -0.2040 H       
  70 H70           -4.2116     6.6291    -0.8133 H       
  71 H71            0.5900     2.2836    -6.0877 H       
  72 H72           -0.0800     1.7101    -8.3865 H       
  73 H73           -2.3349    -1.5947    -6.9029 H       
  74 H74           -1.6556    -1.0255    -4.6057 H       
@<TRIPOS>BOND
   1    1    2 1
   2    1    6 1
   3    1   10 am
   4    2    3 1
   5    2   44 1
   6    2   45 1
   7    3    4 1
   8    3   46 1
   9    3   47 1
  10    4    5 1
  11    4    7 1
  12    4   37 1
  13    5    6 1
  14    5   48 1
  15    5   49 1
  16    6   50 1
  17    6   51 1
  18    7    8 2
  19    7    9 am
  20    9   52 1
  21    9   53 1
  22   10   11 2
  23   10   14 1
  24   12   13 1
  25   12   16 1
  26   12   30 1
  27   13   14 2
  28   13   17 1
  29   14   15 1
  30   15   16 2
  31   15   54 1
  32   16   22 1
  33   17   18 1
  34   17   55 1
  35   17   56 1
  36   18   19 1
  37   18   57 1
  38   18   58 1
  39   19   20 1
  40   19   59 1
  41   19   60 1
  42   20   21 1
  43   20   61 1
  44   20   62 1
  45   21   63 1
  46   22   23 ar
  47   22   27 ar
  48   23   24 ar
  49   23   29 1
  50   24   25 ar
  51   24   64 1
  52   25   26 ar
  53   25   28 1
  54   26   27 ar
  55   26   65 1
  56   27   66 1
  57   30   31 ar
  58   30   35 ar
  59   31   32 ar
  60   31   67 1
  61   32   33 ar
  62   32   68 1
  63   33   34 ar
  64   33   36 1
  65   34   35 ar
  66   34   69 1
  67   35   70 1
  68   37   38 ar
  69   37   42 ar
  70   38   39 ar
  71   38   71 1
  72   39   40 ar
  73   39   72 1
  74   40   41 ar
  75   40   43 1
  76   41   42 ar
  77   41   73 1
  78   42   74 1

#	End of record

