#	Name: ASD01913158
#	Creating user name:	WinNT
#	Creation time:	15. 06. 2019 20:01

#	Modifying user name:	WinNT
#	Modification time:	15. 06. 2019 20:01

#	Program:	/corina/corina34_cracker 3.40 0067  02.08.2006

@<TRIPOS>MOLECULE
ASD01913158
  46   48    0    0    0
SMALL
NO_CHARGES


@<TRIPOS>ATOM
   1 C1            -0.0670     1.1767    -0.0421 C.ar    
   2 C2            -0.0198    -0.2046    -0.0792 C.ar    
   3 C3             1.1988    -0.8551    -0.0958 C.ar    
   4 C4             2.3759    -0.1211    -0.0753 C.ar    
   5 C5             2.3259     1.2648    -0.0381 C.ar    
   6 C6             1.1047     1.9105    -0.0216 C.ar    
   7 O7             3.5759    -0.7587    -0.0911 O.3     
   8 C8             4.7463     0.0608    -0.0683 C.3     
   9 C9             5.9916    -0.8278    -0.0908 C.3     
  10 C10            7.2259     0.0365    -0.0668 C.2     
  11 N11            8.4475    -0.5327    -0.0808 N.am    
  12 C12            9.6650     0.2922    -0.0578 C.3     
  13 C13           10.5780    -0.2185     1.0620 C.3     
  14 N14           10.8067    -1.6587     0.8844 N.3     
  15 C15            9.5535    -2.4159     1.0027 C.3     
  16 C16            8.5985    -1.9954    -0.1133 C.3     
  17 O17            7.1200     1.2442    -0.0348 O.2     
  18 C18           11.7583    -2.1267     1.7836 C.ar    
  19 C19           11.3932    -3.0137     2.7873 C.ar    
  20 C20           12.3398    -3.4766     3.6794 C.ar    
  21 C21           13.6579    -3.0619     3.5815 C.ar    
  22 C22           14.0394    -2.1818     2.5917 C.ar    
  23 C23           13.0946    -1.7092     1.6776 C.ar    
  24 C24           13.4843    -0.7950     0.6466 C.1     
  25 N25           13.7933    -0.0698    -0.1714 N.1     
  26 H26           -1.0206     1.6835    -0.0337 H       
  27 H27           -0.9364    -0.7755    -0.0948 H       
  28 H28            1.2351    -1.9341    -0.1244 H       
  29 H29            3.2408     1.8384    -0.0217 H       
  30 H30            1.0653     2.9894     0.0074 H       
  31 H31            4.7499     0.7135    -0.9413 H       
  32 H32            4.7483     0.6663     0.8380 H       
  33 H33            5.9881    -1.4805     0.7822 H       
  34 H34            5.9897    -1.4333    -0.9972 H       
  35 H35           10.1798     0.2119    -1.0152 H       
  36 H36            9.3992     1.3321     0.1321 H       
  37 H37           11.5312     0.3087     1.0230 H       
  38 H38           10.1034    -0.0419     2.0272 H       
  39 H39            9.7637    -3.4823     0.9208 H       
  40 H40            9.0931    -2.2087     1.9688 H       
  41 H41            7.6282    -2.4686     0.0373 H       
  42 H42            9.0088    -2.2938    -1.0781 H       
  43 H43           10.3676    -3.3416     2.8707 H       
  44 H44           12.0507    -4.1662     4.4587 H       
  45 H45           14.3904    -3.4299     4.2847 H       
  46 H46           15.0682    -1.8612     2.5204 H       
@<TRIPOS>BOND
   1    1    2 ar
   2    1    6 ar
   3    1   26 1
   4    2    3 ar
   5    2   27 1
   6    3    4 ar
   7    3   28 1
   8    4    5 ar
   9    4    7 1
  10    5    6 ar
  11    5   29 1
  12    6   30 1
  13    7    8 1
  14    8    9 1
  15    8   31 1
  16    8   32 1
  17    9   10 1
  18    9   33 1
  19    9   34 1
  20   10   11 am
  21   10   17 2
  22   11   12 1
  23   11   16 1
  24   12   13 1
  25   12   35 1
  26   12   36 1
  27   13   14 1
  28   13   37 1
  29   13   38 1
  30   14   15 1
  31   14   18 1
  32   15   16 1
  33   15   39 1
  34   15   40 1
  35   16   41 1
  36   16   42 1
  37   18   19 ar
  38   18   23 ar
  39   19   20 ar
  40   19   43 1
  41   20   21 ar
  42   20   44 1
  43   21   22 ar
  44   21   45 1
  45   22   23 ar
  46   22   46 1
  47   23   24 1
  48   24   25 3

#	End of record

