#	Name: ASD05730131
#	Creating user name:	WinNT
#	Creation time:	15. 06. 2019 21:02

#	Modifying user name:	WinNT
#	Modification time:	15. 06. 2019 21:02

#	Program:	/corina/corina34_cracker 3.40 0067  02.08.2006

@<TRIPOS>MOLECULE
ASD05730131
  89   95    0    0    0
SMALL
NO_CHARGES


@<TRIPOS>ATOM
   1 N1             0.0004     1.6004     0.1412 N.pl3   
   2 C2             0.0046     0.2012     0.1207 C.ar    
   3 C3            -1.0745    -0.4886    -0.4164 C.ar    
   4 C4            -1.0702    -1.8691    -0.4371 C.ar    
   5 C5             0.0132    -2.5679     0.0792 C.ar    
   6 C6             1.0920    -1.8782     0.6167 C.ar    
   7 C7             1.0903    -0.4976     0.6322 C.ar    
   8 N8             0.0175    -3.9684     0.0583 N.pl3   
   9 C9             1.1986    -4.6522    -0.1540 C.ar    
  10 N10            1.1636    -5.9731    -0.2440 N.ar    
  11 C11            2.2787    -6.6653    -0.4477 C.ar    
  12 C12            3.4991    -5.9654    -0.5660 C.ar    
  13 C13            3.4832    -4.5661    -0.4633 C.ar    
  14 N14            2.3274    -3.9604    -0.2657 N.ar    
  15 N15            2.2518    -8.0338    -0.5418 N.am    
  16 C16            3.3859    -8.7308    -0.7476 C.2     
  17 C17            4.6685    -8.0357    -0.8744 C.2     
  18 C18            4.7049    -6.6699    -0.7836 C.2     
  19 C19            0.9767    -8.7442    -0.4166 C.3     
  20 O20            3.3444    -9.9455    -0.8282 O.2     
  21 C21            5.9156    -8.8034    -1.0998 C.ar    
  22 C22           -1.0740     2.3396    -0.5262 C.3     
  23 C23            0.4030    -8.9919    -1.7880 C.ar    
  24 C24            6.5101    -8.8185    -2.3614 C.ar    
  25 C25            7.6715    -9.5348    -2.5651 C.ar    
  26 C26            8.2465   -10.2372    -1.5208 C.ar    
  27 C27            7.6614   -10.2264    -0.2675 C.ar    
  28 C28            6.5027    -9.5089    -0.0501 C.ar    
  29 S29            9.7299   -11.1496    -1.7888 S.o2    
  30 C30           -1.9015     3.0923     0.5182 C.3     
  31 C31            5.8848    -8.0544    -3.4999 C.3     
  32 C32           11.0773   -10.0639    -1.4563 C.ar    
  33 O33            9.7686   -12.1559    -0.7862 O.2     
  34 O34            9.7791   -11.4360    -3.1797 O.2     
  35 C35           11.6212    -9.2793    -2.4617 C.ar    
  36 N36           -2.9657     3.8502    -0.1522 N.3     
  37 C37           -2.4073     4.8533    -1.0678 C.3     
  38 C38           -1.5949     4.1532    -2.1596 C.3     
  39 C39           -0.4686     3.3437    -1.5110 C.3     
  40 C40           -0.7536    -9.7353    -1.9292 C.ar    
  41 C41            1.0673     2.3260     0.8352 C.3     
  42 C42           11.6150    -9.9697    -0.1818 C.ar    
  43 C43           12.6713    -9.1068     0.0413 C.ar    
  44 N44           13.1665    -8.3788    -0.9403 N.ar    
  45 C45           12.6773    -8.4392    -2.1634 C.ar    
  46 C46           -1.2799    -9.9625    -3.1873 C.ar    
  47 C47           -0.6498    -9.4459    -4.3037 C.ar    
  48 C48            0.5067    -8.7015    -4.1623 C.ar    
  49 C49            1.0305    -8.4707    -2.9043 C.ar    
  50 C50           -1.4407   -10.2985    -0.7120 C.3     
  51 F51           -2.5204   -11.0932    -1.1119 F       
  52 F52           -0.5344   -11.0759     0.0172 F       
  53 F53           -1.9050    -9.2495     0.0887 F       
  54 H54           -1.9172     0.0548    -0.8177 H       
  55 H55           -1.9095    -2.4056    -0.8545 H       
  56 H56            1.9343    -2.4217     1.0186 H       
  57 H57            1.9293     0.0388     1.0502 H       
  58 H58           -0.8090    -4.4581     0.1928 H       
  59 H59            4.3968    -3.9965    -0.5486 H       
  60 H60            5.6411    -6.1393    -0.8749 H       
  61 H61            1.1397    -9.6973     0.0866 H       
  62 H62            0.2801    -8.1407     0.1651 H       
  63 H63           -1.7154     1.6422    -1.0649 H       
  64 H64            8.1326    -9.5475    -3.5416 H       
  65 H65            8.1146   -10.7768     0.5436 H       
  66 H66            6.0469    -9.5009     0.9289 H       
  67 H67           -2.3457     2.3791     1.2125 H       
  68 H68           -1.2566     3.7791     1.0664 H       
  69 H69            6.2883    -7.0421    -3.5231 H       
  70 H70            6.1089    -8.5566    -4.4410 H       
  71 H71            4.8047    -8.0118    -3.3591 H       
  72 H72           11.2249    -9.3243    -3.4654 H       
  73 H73           -3.6000     3.2324    -0.6359 H       
  74 H74           -3.2189     5.4190    -1.5254 H       
  75 H75           -1.7600     5.5318    -0.5122 H       
  76 H76           -2.2447     3.4847    -2.7245 H       
  77 H77           -1.1677     4.8989    -2.8300 H       
  78 H78            0.2033     4.0166    -0.9782 H       
  79 H79            0.0861     2.8087    -2.2818 H       
  80 H80            1.8853     2.5203     0.1415 H       
  81 H81            0.6780     3.2718     1.2118 H       
  82 H82            1.4324     1.7257     1.6685 H       
  83 H83           11.2133   -10.5628     0.6264 H       
  84 H84           13.0958    -9.0276     1.0313 H       
  85 H85           13.1094    -7.8279    -2.9419 H       
  86 H86           -2.1833   -10.5440    -3.2978 H       
  87 H87           -1.0605    -9.6240    -5.2866 H       
  88 H88            0.9993    -8.2981    -5.0347 H       
  89 H89            1.9338    -7.8892    -2.7938 H       
@<TRIPOS>BOND
   1    1    2 1
   2    1   22 1
   3    1   41 1
   4    2    3 ar
   5    2    7 ar
   6    3    4 ar
   7    3   54 1
   8    4    5 ar
   9    4   55 1
  10    5    6 ar
  11    5    8 1
  12    6    7 ar
  13    6   56 1
  14    7   57 1
  15    8    9 1
  16    8   58 1
  17    9   10 ar
  18    9   14 ar
  19   10   11 ar
  20   11   12 ar
  21   11   15 1
  22   12   13 ar
  23   12   18 1
  24   13   14 ar
  25   13   59 1
  26   15   16 am
  27   15   19 1
  28   16   17 1
  29   16   20 2
  30   17   18 2
  31   17   21 1
  32   18   60 1
  33   19   23 1
  34   19   61 1
  35   19   62 1
  36   21   24 ar
  37   21   28 ar
  38   22   30 1
  39   22   39 1
  40   22   63 1
  41   23   40 ar
  42   23   49 ar
  43   24   25 ar
  44   24   31 1
  45   25   26 ar
  46   25   64 1
  47   26   27 ar
  48   26   29 1
  49   27   28 ar
  50   27   65 1
  51   28   66 1
  52   29   32 1
  53   29   33 2
  54   29   34 2
  55   30   36 1
  56   30   67 1
  57   30   68 1
  58   31   69 1
  59   31   70 1
  60   31   71 1
  61   32   42 ar
  62   32   35 ar
  63   35   45 ar
  64   35   72 1
  65   36   37 1
  66   36   73 1
  67   37   38 1
  68   37   74 1
  69   37   75 1
  70   38   39 1
  71   38   76 1
  72   38   77 1
  73   39   78 1
  74   39   79 1
  75   40   46 ar
  76   40   50 1
  77   41   80 1
  78   41   81 1
  79   41   82 1
  80   42   43 ar
  81   42   83 1
  82   43   44 ar
  83   43   84 1
  84   44   45 ar
  85   45   85 1
  86   46   47 ar
  87   46   86 1
  88   47   48 ar
  89   47   87 1
  90   48   49 ar
  91   48   88 1
  92   49   89 1
  93   50   51 1
  94   50   52 1
  95   50   53 1

#	End of record

