#	Name: ASD01916496
#	Creating user name:	WinNT
#	Creation time:	15. 06. 2019 20:07

#	Modifying user name:	WinNT
#	Modification time:	15. 06. 2019 20:07

#	Program:	/corina/corina34_cracker 3.40 0067  02.08.2006

@<TRIPOS>MOLECULE
ASD01916496
  39   42    0    0    0
SMALL
NO_CHARGES


@<TRIPOS>ATOM
   1 C1            -0.0171     1.4101     0.0098 C.ar    
   2 C2             0.0021    -0.0041     0.0020 C.ar    
   3 C3            -1.1929    -0.7248     0.0109 C.ar    
   4 C4            -2.3855    -0.0629     0.0266 C.ar    
   5 C5            -2.4222     1.3398     0.0339 C.ar    
   6 C6            -1.2404     2.0771     0.0308 C.ar    
   7 N7             1.1600     2.0836     0.0022 N.2     
   8 C8             2.3048     1.4696    -0.0113 C.2     
   9 N9             2.4156     0.1069    -0.0229 N.am    
  10 C10            1.3097    -0.6723    -0.0160 C.2     
  11 C11           -3.6833     2.0180     0.0502 C.1     
  12 C12           -4.7172     2.5740     0.0635 C.1     
  13 C13           -5.9784     3.2522     0.0798 C.ar    
  14 N14           -6.0130     4.5813     0.0867 N.ar    
  15 C15           -7.1524     5.2414     0.1012 C.ar    
  16 C16           -8.3624     4.5712     0.1099 C.ar    
  17 C17           -8.3734     3.1828     0.1032 C.ar    
  18 C18           -7.1638     2.5124     0.0826 C.ar    
  19 O19            1.3956    -1.8867    -0.0248 O.2     
  20 C20            3.5820     2.2882    -0.0121 C.3     
  21 C21            4.5853     1.5673     0.9048 C.3     
  22 C22            4.7408     0.1542     0.3880 C.2     
  23 C23            3.6730    -0.4939    -0.0421 C.2     
  24 C24            6.0956    -0.5053     0.3636 C.3     
  25 H25           -1.1735    -1.8046     0.0051 H       
  26 H26           -3.3089    -0.6230     0.0331 H       
  27 H27           -1.2720     3.1566     0.0365 H       
  28 H28           -7.1420     6.3213     0.1068 H       
  29 H29           -9.2906     5.1231     0.1222 H       
  30 H30           -9.3061     2.6383     0.1101 H       
  31 H31           -7.1358     1.4328     0.0768 H       
  32 H32            3.9823     2.3504    -1.0240 H       
  33 H33            3.3817     3.2888     0.3710 H       
  34 H34            5.5470     2.0797     0.8762 H       
  35 H35            4.2055     1.5481     1.9263 H       
  36 H36            3.7758    -1.5029    -0.4132 H       
  37 H37            6.2620    -1.0284     1.3052 H       
  38 H38            6.1381    -1.2177    -0.4603 H       
  39 H39            6.8665     0.2533     0.2281 H       
@<TRIPOS>BOND
   1    1    2 ar
   2    1    7 1
   3    1    6 ar
   4    2    3 ar
   5    2   10 1
   6    3    4 ar
   7    3   25 1
   8    4    5 ar
   9    4   26 1
  10    5    6 ar
  11    5   11 1
  12    6   27 1
  13    7    8 2
  14    8    9 1
  15    8   20 1
  16    9   10 am
  17    9   23 1
  18   10   19 2
  19   11   12 3
  20   12   13 1
  21   13   14 ar
  22   13   18 ar
  23   14   15 ar
  24   15   16 ar
  25   15   28 1
  26   16   17 ar
  27   16   29 1
  28   17   18 ar
  29   17   30 1
  30   18   31 1
  31   20   21 1
  32   20   32 1
  33   20   33 1
  34   21   22 1
  35   21   34 1
  36   21   35 1
  37   22   23 2
  38   22   24 1
  39   23   36 1
  40   24   37 1
  41   24   38 1
  42   24   39 1

#	End of record

