#	Name: ASD01911426
#	Creating user name:	WinNT
#	Creation time:	15. 06. 2019 19:57

#	Modifying user name:	WinNT
#	Modification time:	15. 06. 2019 19:57

#	Program:	/corina/corina34_cracker 3.40 0067  02.08.2006

@<TRIPOS>MOLECULE
ASD01911426
  34   35    0    0    0
SMALL
NO_CHARGES


@<TRIPOS>ATOM
   1 N1            -0.0169     1.3965     0.0097 N.2     
   2 N2             0.0021    -0.0041     0.0020 N.pl3   
   3 C3             1.2284     1.8226     0.0001 C.2     
   4 C4             2.0722     0.6950    -0.0140 C.2     
   5 C5             1.2908    -0.4070    -0.0125 C.2     
   6 C6             1.7727    -1.8348    -0.0237 C.3     
   7 C7             1.6660     3.2408     0.0031 C.ar    
   8 C8            -1.1724    -0.8798     0.0090 C.3     
   9 C9            -1.5888    -1.1729    -1.4094 C.2     
  10 O10           -2.6491    -1.9605    -1.6484 O.3     
  11 O11           -0.9682    -0.6990    -2.3314 O.2     
  12 C12            2.0682    -2.2847     1.4084 C.3     
  13 C13            0.7204     4.2636     0.0177 C.ar    
  14 C14            3.0242     3.5529    -0.0028 C.ar    
  15 C15            3.4267     4.8725     0.0005 C.ar    
  16 C16            2.4827     5.8868     0.0101 C.ar    
  17 C17            1.1317     5.5810     0.0209 C.ar    
  18 F18            2.8811     7.1777     0.0138 F       
  19 C19            0.1096     6.6883     0.0309 C.3     
  20 H20            3.1521     0.7089    -0.0242 H       
  21 H21            1.0024    -2.4748    -0.4540 H       
  22 H22            2.6810    -1.9071    -0.6220 H       
  23 H23           -0.9267    -1.8130     0.5158 H       
  24 H24           -1.9906    -0.3861     0.5332 H       
  25 H25           -2.8778    -2.1198    -2.5744 H       
  26 H26            1.1600    -2.2125     2.0067 H       
  27 H27            2.4168    -3.3174     1.4003 H       
  28 H28            2.8386    -1.6447     1.8387 H       
  29 H29           -0.3331     4.0260     0.0261 H       
  30 H30            3.7606     2.7629    -0.0096 H       
  31 H31            4.4790     5.1153    -0.0041 H       
  32 H32           -0.1453     6.9567    -0.9943 H       
  33 H33           -0.7865     6.3509     0.5517 H       
  34 H34            0.5214     7.5582     0.5425 H       
@<TRIPOS>BOND
   1    1    2 1
   2    1    3 2
   3    2    8 1
   4    2    5 1
   5    3    4 1
   6    3    7 1
   7    4    5 2
   8    4   20 1
   9    5    6 1
  10    6   12 1
  11    6   21 1
  12    6   22 1
  13    7   13 ar
  14    7   14 ar
  15    8    9 1
  16    8   23 1
  17    8   24 1
  18    9   10 1
  19    9   11 2
  20   10   25 1
  21   12   26 1
  22   12   27 1
  23   12   28 1
  24   13   17 ar
  25   13   29 1
  26   14   15 ar
  27   14   30 1
  28   15   16 ar
  29   15   31 1
  30   16   17 ar
  31   16   18 1
  32   17   19 1
  33   19   32 1
  34   19   33 1
  35   19   34 1

#	End of record

