#	Name: ASD03430051
#	Creating user name:	WinNT
#	Creation time:	15. 06. 2019 20:40

#	Modifying user name:	WinNT
#	Modification time:	15. 06. 2019 20:40

#	Program:	/corina/corina34_cracker 3.40 0067  02.08.2006

@<TRIPOS>MOLECULE
ASD03430051
  51   56    0    0    0
SMALL
NO_CHARGES


@<TRIPOS>ATOM
   1 C1            -0.0167     1.3822     0.0096 C.ar    
   2 C2             0.0021    -0.0041     0.0020 C.ar    
   3 C3             1.2028    -0.6818    -0.0150 C.ar    
   4 C4             2.4086     0.0131    -0.0144 C.ar    
   5 C5             2.3861     1.4041    -0.0114 C.ar    
   6 C6             1.1814     2.0869     0.0020 C.ar    
   7 O7             3.4714    -0.8417    -0.0032 O.3     
   8 C8             1.5512    -2.1457    -0.0485 C.3     
   9 C9             3.0370    -2.1459    -0.4335 C.3     
  10 C10            0.4288    -3.8614     1.0077 C.ar    
  11 C11            1.3141    -2.8198     1.2701 C.ar    
  12 C12            0.7189    -2.9072    -1.0399 C.2     
  13 N13            0.1006    -3.8864    -0.3500 N.am    
  14 O14            0.6218    -2.6846    -2.2282 O.2     
  15 C15            1.7784    -2.5988     2.5524 C.ar    
  16 C16            1.3620    -3.4208     3.5918 C.ar    
  17 C17            0.4840    -4.4570     3.3377 C.ar    
  18 C18            0.0188    -4.6795     2.0577 C.ar    
  19 C19           -0.8091    -4.8632    -0.9537 C.3     
  20 O20           -1.2112     2.0359     0.0189 O.3     
  21 C21           -1.1864     3.4166     0.3972 C.3     
  22 C22           -0.0349     4.0991    -0.3534 C.3     
  23 O23            1.1867     3.4486     0.0109 O.3     
  24 O24            2.6420    -1.5784     2.7966 O.3     
  25 C25            3.0808    -1.4086     4.1459 C.3     
  26 N26            4.5539     0.0984     5.3838 N.ar    
  27 C27            4.0261    -0.2375     4.2231 C.ar    
  28 C28            5.3861     1.1151     5.4990 C.ar    
  29 C29            5.7364     1.8702     4.3961 C.ar    
  30 C30            5.2012     1.5471     3.1582 C.ar    
  31 C31            4.3301     0.4718     3.0763 C.ar    
  32 H32           -0.9268    -0.5550     0.0098 H       
  33 H33            3.3148     1.9553    -0.0192 H       
  34 H34            3.1575    -2.2580    -1.5110 H       
  35 H35            3.5752    -2.9288     0.1007 H       
  36 H36            1.7237    -3.2507     4.5951 H       
  37 H37            0.1603    -5.0967     4.1454 H       
  38 H38           -0.6670    -5.4923     1.8691 H       
  39 H39           -1.8283    -4.4778    -0.9232 H       
  40 H40           -0.5181    -5.0392    -1.9893 H       
  41 H41           -0.7578    -5.7994    -0.3978 H       
  42 H42           -2.1315     3.8885     0.1283 H       
  43 H43           -1.0256     3.5005     1.4720 H       
  44 H44           -0.1919     4.0085    -1.4282 H       
  45 H45            0.0119     5.1521    -0.0757 H       
  46 H46            2.2193    -1.2231     4.7874 H       
  47 H47            3.5931    -2.3116     4.4777 H       
  48 H48            5.7982     1.3605     6.4666 H       
  49 H49            6.4180     2.7018     4.4969 H       
  50 H50            5.4567     2.1198     2.2789 H       
  51 H51            3.8949     0.1916     2.1285 H       
@<TRIPOS>BOND
   1    1    2 ar
   2    1    6 ar
   3    1   20 1
   4    2    3 ar
   5    2   32 1
   6    3    4 ar
   7    3    8 1
   8    4    5 ar
   9    4    7 1
  10    5    6 ar
  11    5   33 1
  12    6   23 1
  13    7    9 1
  14    8    9 1
  15    8   11 1
  16    8   12 1
  17    9   34 1
  18    9   35 1
  19   10   11 ar
  20   10   13 1
  21   10   18 ar
  22   11   15 ar
  23   12   13 am
  24   12   14 2
  25   13   19 1
  26   15   16 ar
  27   15   24 1
  28   16   17 ar
  29   16   36 1
  30   17   18 ar
  31   17   37 1
  32   18   38 1
  33   19   39 1
  34   19   40 1
  35   19   41 1
  36   20   21 1
  37   21   22 1
  38   21   42 1
  39   21   43 1
  40   22   23 1
  41   22   44 1
  42   22   45 1
  43   24   25 1
  44   25   27 1
  45   25   46 1
  46   25   47 1
  47   26   27 ar
  48   26   28 ar
  49   27   31 ar
  50   28   29 ar
  51   28   48 1
  52   29   30 ar
  53   29   49 1
  54   30   31 ar
  55   30   50 1
  56   31   51 1

#	End of record

