#	Name: ASD06600046
#	Creating user name:	WinNT
#	Creation time:	15. 06. 2019 21:07

#	Modifying user name:	WinNT
#	Modification time:	15. 06. 2019 21:07

#	Program:	/corina/corina34_cracker 3.40 0067  02.08.2006

@<TRIPOS>MOLECULE
ASD06600046
 295  298    0    0    0
SMALL
NO_CHARGES


@<TRIPOS>ATOM
   1 C1            -1.9027     5.3794   -10.6326 C.2     
   2 O2            -1.5171     4.2392   -10.4840 O.2     
   3 N3             0.2456     5.7561   -11.6966 N.am    
   4 C4            -1.0170     6.3918   -11.3122 C.3     
   5 C5            -1.7196     6.9270   -12.5615 C.3     
   6 C6            -0.8896     8.0264   -13.1725 C.2     
   7 C7            -0.4501     8.0724   -14.4446 C.2     
   8 N8             0.2599     9.2352   -14.5766 N.pl3   
   9 C9             0.2295     9.8598   -13.3797 C.2     
  10 N10           -0.4639     9.1335   -12.5462 N.2     
  11 C11           -5.4300     5.1652    -9.6973 C.2     
  12 O12           -5.7086     6.1814   -10.2977 O.2     
  13 N13           -3.1254     5.7397   -10.1950 N.am    
  14 C14           -3.9888     4.7541    -9.5398 C.3     
  15 C15           -3.6395     4.6790    -8.0521 C.3     
  16 C16           -8.6275     4.2087    -8.2058 C.2     
  17 O17           -8.1397     3.3701    -7.4779 O.2     
  18 N18           -6.4094     4.4035    -9.1709 N.am    
  19 C19           -7.8105     4.8031    -9.3240 C.3     
  20 C20           -8.3410     4.2983   -10.6673 C.3     
  21 C21           -7.6016     5.0045   -11.8055 C.3     
  22 C22           -8.1137     2.7888   -10.7707 C.3     
  23 C23          -12.1816     4.1077    -7.3566 C.2     
  24 O24          -12.4974     4.6962    -8.3689 O.2     
  25 N25           -9.9002     4.6089    -8.0148 N.am    
  26 C26          -10.7265     3.9605    -6.9934 C.3     
  27 C27          -10.4703     4.6193    -5.6365 C.3     
  28 C28           -9.0454     4.3663    -5.2162 C.2     
  29 C29           -8.1404     5.3057    -4.8813 C.2     
  30 N30           -6.9828     4.6463    -4.5671 N.pl3   
  31 C31           -7.2208     3.3260    -4.7210 C.2     
  32 N32           -8.4579     3.1658    -5.1046 N.2     
  33 C33          -15.3869     3.6438    -5.6613 C.2     
  34 O34          -14.8564     3.4801    -4.5831 O.2     
  35 N35          -13.1320     3.5853    -6.5564 N.am    
  36 C36          -14.5466     3.7283    -6.9095 C.3     
  37 C37          -14.9480     2.6083    -7.8713 C.3     
  38 C38          -18.9328     3.2037    -4.8894 C.2     
  39 O39          -19.2122     2.9650    -6.0452 O.2     
  40 N40          -16.7280     3.7500    -5.7433 N.am    
  41 C41          -17.5449     3.6678    -4.5300 C.3     
  42 C42          -17.6226     5.0474    -3.8731 C.3     
  43 C43          -16.2509     5.4580    -3.4031 C.ar    
  44 C44          -15.4140     6.1628    -4.2485 C.ar    
  45 C45          -14.1559     6.5400    -3.8203 C.ar    
  46 C46          -13.7326     6.2114    -2.5406 C.ar    
  47 O47          -12.4956     6.5817    -2.1168 O.3     
  48 C48          -14.5744     5.5046    -1.6942 C.ar    
  49 C49          -15.8335     5.1342    -2.1254 C.ar    
  50 C50          -22.1889     3.0819    -3.2322 C.2     
  51 O51          -21.7960     3.7360    -2.2895 O.2     
  52 N52          -19.8637     3.0537    -3.9263 N.am    
  53 C53          -21.2130     2.6025    -4.2756 C.3     
  54 C54          -21.2401     1.0739    -4.3353 C.3     
  55 C55          -20.3437     0.5921    -5.4778 C.3     
  56 C56          -20.3708    -0.9365    -5.5374 C.3     
  57 N57          -19.5125    -1.3978    -6.6314 N.pl3   
  58 C58          -19.3787    -2.7434    -6.8796 C.2     
  59 N59          -20.0156    -3.6087    -6.1416 N.2     
  60 N60          -18.5732    -3.1763    -7.9062 N.pl3   
  61 C61          -25.6478     2.3394    -2.3116 C.2     
  62 O62          -25.7056     1.3945    -3.0696 O.2     
  63 N63          -23.4983     2.7836    -3.3465 N.am    
  64 C64          -24.4470     3.2497    -2.3321 C.3     
  65 C65          -24.8927     4.6745    -2.6669 C.3     
  66 C66          -23.7126     5.6065    -2.5672 C.2     
  67 C67          -23.2726     6.4325    -3.5355 C.2     
  68 N68          -22.1866     7.0938    -3.0286 N.pl3   
  69 C69          -22.0006     6.6485    -1.7673 C.2     
  70 N70          -22.9200     5.7628    -1.4965 N.2     
  71 C71          -29.0162     2.4424    -0.8950 C.2     
  72 O72          -28.9012     3.6031    -0.5625 O.2     
  73 N73          -26.6577     2.5755    -1.4508 N.am    
  74 C74          -27.8251     1.6906    -1.4308 C.3     
  75 C75          -27.5365     0.4857    -0.5331 C.3     
  76 C76          -26.4079    -0.3470    -1.1443 C.3     
  77 C77          -26.1193    -1.5519    -0.2466 C.3     
  78 N78          -25.0386    -2.3492    -0.8319 N.pl3   
  79 C79          -24.6038    -3.4887    -0.1973 C.2     
  80 N80          -23.6423    -4.1981    -0.7181 N.2     
  81 N81          -25.1832    -3.8800     0.9864 N.pl3   
  82 C82          -32.3515     1.5808     0.3282 C.2     
  83 O83          -32.1098     0.3924     0.3166 O.2     
  84 N84          -30.2092     1.8250    -0.7853 N.am    
  85 C85          -31.3671     2.5559    -0.2644 C.3     
  86 C86          -32.0367     3.3285    -1.4026 C.3     
  87 C87          -31.0796     4.4034    -1.9216 C.3     
  88 C88          -31.7492     5.1760    -3.0599 C.3     
  89 N89          -30.8328     6.2052    -3.5568 N.pl3   
  90 C90          -31.2188     7.0301    -4.5867 C.2     
  91 N91          -32.4002     6.8964    -5.1210 N.2     
  92 N92          -30.3587     7.9960    -5.0531 N.pl3   
  93 C93          -35.8316     1.5310     1.3266 C.2     
  94 O94          -36.0689     2.5203     0.6664 O.2     
  95 N95          -33.5007     2.0294     0.8711 N.am    
  96 C96          -34.4056     1.0956     1.5458 C.3     
  97 C97          -34.1008     1.0833     3.0451 C.3     
  98 C98          -34.1339     2.5149     3.5839 C.3     
  99 C99          -35.5666     3.0487     3.5258 C.3     
 100 C100         -32.7133     0.4824     3.2785 C.3     
 101 C101         -39.1280     0.7054     2.6738 C.2     
 102 O102         -38.6544     0.1296     3.6305 O.2     
 103 N103         -36.8432     0.8210     1.8642 N.am    
 104 C104         -38.2311     1.1763     1.5581 C.3     
 105 C105         -38.6519     0.5067     0.2484 C.3     
 106 C106         -37.8243     1.0773    -0.9050 C.3     
 107 C107         -38.1559     0.3215    -2.1934 C.3     
 108 C108         -38.1541     2.5605    -1.0845 C.3     
 109 C109         -42.7229     0.2567     3.1622 C.2     
 110 O110         -42.9648     0.4689     1.9929 O.2     
 111 N111         -40.4563     0.9239     2.6086 N.am    
 112 C112         -41.3282     0.4661     3.6932 C.3     
 113 C113         -41.3577     1.5191     4.8028 C.3     
 114 O114         -41.9648     2.7147     4.3088 O.3     
 115 C115         -45.8043     0.9385     3.4909 C.2     
 116 O116         -45.2600     1.9387     3.8951 O.2     
 117 N117         -43.7014    -0.1665     3.9867 N.am    
 118 C118         -45.0572    -0.3701     3.4705 C.3     
 119 C119         -45.7890    -1.3887     4.3468 C.3     
 120 C120         -47.1586    -1.6950     3.7375 C.3     
 121 C121         -47.8386    -2.8039     4.5430 C.3     
 122 C122         -45.9732    -0.8132     5.7524 C.3     
 123 O123         -47.0743     0.9931     3.0599 O.3     
 124 C124           1.3581     6.5023   -11.8448 C.2     
 125 O125           1.3138     7.7002   -11.6600 O.2     
 126 C126          19.5640     8.6377   -15.7400 C.3     
 127 C127          18.2453     9.3017   -15.3385 C.3     
 128 C128          17.1487     8.2393   -15.2400 C.3     
 129 C129          15.8300     8.9032   -14.8386 C.3     
 130 C130          14.7334     7.8408   -14.7401 C.3     
 131 C131          13.4147     8.5047   -14.3386 C.3     
 132 C132          12.3181     7.4423   -14.2401 C.3     
 133 C133          10.9994     8.1062   -13.8386 C.3     
 134 C134           9.9028     7.0438   -13.7401 C.3     
 135 C135           8.5841     7.7078   -13.3387 C.3     
 136 C136           7.4875     6.6454   -13.2402 C.3     
 137 C137           6.1689     7.3093   -12.8387 C.3     
 138 C138           5.0723     6.2469   -12.7402 C.3     
 139 C139           3.7536     6.9108   -12.3388 C.3     
 140 C140           2.6570     5.8484   -12.2402 C.3     
 141 H141           0.2810     4.7980   -11.8444 H       
 142 H142          -0.8154     7.2157   -10.6276 H       
 143 H143          -1.8416     6.1197   -13.2837 H       
 144 H144          -2.6985     7.3204   -12.2874 H       
 145 H145          -0.6240     7.3336   -15.2129 H       
 146 H146           0.7022     9.5515   -15.3798 H       
 147 H147           0.6980    10.8057   -13.1512 H       
 148 H148          -3.4338     6.6517   -10.3138 H       
 149 H149          -3.8375     3.7768    -9.9983 H       
 150 H150          -3.7907     5.6563    -7.5936 H       
 151 H151          -4.2818     3.9456    -7.5646 H       
 152 H152          -2.5970     4.3817    -7.9382 H       
 153 H153          -6.1866     3.5907    -8.6907 H       
 154 H154          -7.8842     5.8901    -9.2896 H       
 155 H155          -9.4076     4.5110   -10.7399 H       
 156 H156          -6.5552     4.6993   -11.8036 H       
 157 H157          -8.0573     4.7337   -12.7580 H       
 158 H158          -7.6656     6.0836   -11.6660 H       
 159 H159          -8.6405     2.2857    -9.9598 H       
 160 H160          -8.4917     2.4292   -11.7277 H       
 161 H161          -7.0472     2.5762   -10.6982 H       
 162 H162         -10.2692     5.3262    -8.5535 H       
 163 H163         -10.4712     2.9023    -6.9375 H       
 164 H164         -10.6405     5.6930    -5.7160 H       
 165 H165         -11.1483     4.1979    -4.8942 H       
 166 H166          -8.2977     6.3741    -4.8643 H       
 167 H167          -6.1475     5.0517    -4.2863 H       
 168 H168          -6.5069     2.5336    -4.5509 H       
 169 H169         -12.8794     3.1146    -5.7468 H       
 170 H170         -14.7054     4.6939    -7.3896 H       
 171 H171         -16.0005     2.7147    -8.1340 H       
 172 H172         -14.3403     2.6694    -8.7741 H       
 173 H173         -14.7893     1.6427    -7.3912 H       
 174 H174         -17.1523     3.8809    -6.6057 H       
 175 H175         -17.0934     2.9595    -3.8353 H       
 176 H176         -17.9913     5.7742    -4.5969 H       
 177 H177         -18.3014     5.0065    -3.0212 H       
 178 H178         -15.7440     6.4184    -5.2446 H       
 179 H179         -13.5023     7.0899    -4.4812 H       
 180 H180         -12.4695     7.4486    -1.6893 H       
 181 H181         -14.2470     5.2472    -0.6977 H       
 182 H182         -16.4908     4.5878    -1.4653 H       
 183 H183         -19.6403     3.2446    -3.0019 H       
 184 H184         -21.4917     3.0090    -5.2478 H       
 185 H185         -20.8764     0.6670    -3.3918 H       
 186 H186         -22.2617     0.7351    -4.5074 H       
 187 H187         -20.7074     0.9991    -6.4213 H       
 188 H188         -19.3221     0.9310    -5.3057 H       
 189 H189         -20.0071    -1.3434    -4.5939 H       
 190 H190         -21.3924    -1.2753    -5.7095 H       
 191 H191         -19.0385    -0.7538    -7.1806 H       
 192 H192         -19.9212    -4.5580    -6.3167 H       
 193 H193         -18.0993    -2.5323    -8.4554 H       
 194 H194         -18.4789    -4.1257    -8.0813 H       
 195 H195         -23.8125     2.2605    -4.1004 H       
 196 H196         -23.9667     3.2397    -1.3536 H       
 197 H197         -25.2923     4.7014    -3.6807 H       
 198 H198         -25.6641     4.9885    -1.9638 H       
 199 H199         -23.6951     6.5504    -4.5224 H       
 200 H200         -21.6506     7.7582    -3.4893 H       
 201 H201         -21.2224     6.9743    -1.0930 H       
 202 H202         -26.6115     3.3312    -0.8445 H       
 203 H203         -28.0378     1.3468    -2.4431 H       
 204 H204         -27.2373     0.8329     0.4559 H       
 205 H205         -28.4342    -0.1266    -0.4470 H       
 206 H206         -26.7070    -0.6941    -2.1333 H       
 207 H207         -25.5102     0.2653    -1.2304 H       
 208 H208         -25.8201    -1.2047     0.7424 H       
 209 H209         -27.0169    -2.1641    -0.1606 H       
 210 H210         -24.6297    -2.0731    -1.6671 H       
 211 H211         -23.3355    -5.0021    -0.2704 H       
 212 H212         -25.8988    -3.3520     1.3740 H       
 213 H213         -24.8765    -4.6839     1.4341 H       
 214 H214         -30.3011     0.8967    -1.0512 H       
 215 H215         -31.0395     3.2545     0.5055 H       
 216 H216         -32.2845     2.6413    -2.2116 H       
 217 H217         -32.9479     3.8002    -1.0347 H       
 218 H218         -30.8318     5.0905    -1.1126 H       
 219 H219         -30.1684     3.9316    -2.2895 H       
 220 H220         -31.9970     4.4888    -3.8689 H       
 221 H221         -32.6604     5.6477    -2.6920 H       
 222 H222         -29.9536     6.3047    -3.1592 H       
 223 H223         -32.6725     7.4784    -5.8476 H       
 224 H224         -29.4796     8.0955    -4.6555 H       
 225 H225         -30.6311     8.5780    -5.7797 H       
 226 H226         -33.7285     2.9706     0.8151 H       
 227 H227         -34.2647     0.0945     1.1382 H       
 228 H228         -34.8486     0.4828     3.5630 H       
 229 H229         -33.7849     2.5226     4.6165 H       
 230 H230         -33.4858     3.1468     2.9766 H       
 231 H231         -36.2537     2.2860     3.8922 H       
 232 H232         -35.6478     3.9400     4.1481 H       
 233 H233         -35.8190     3.3005     2.4958 H       
 234 H234         -31.9723     1.0493     2.7149 H       
 235 H235         -32.4727     0.5256     4.3408 H       
 236 H236         -32.7063    -0.5557     2.9463 H       
 237 H237         -36.6523     0.0749     2.4539 H       
 238 H238         -38.3152     2.2583     1.4564 H       
 239 H239         -38.4839    -0.5679     0.3193 H       
 240 H240         -39.7095     0.6978     0.0660 H       
 241 H241         -36.7634     0.9655    -0.6810 H       
 242 H242         -39.2168     0.4333    -2.4174 H       
 243 H243         -37.5662     0.7280    -3.0151 H       
 244 H244         -37.9209    -0.7351    -2.0655 H       
 245 H245         -37.9178     3.0989    -0.1667 H       
 246 H246         -37.5644     2.9670    -1.9062 H       
 247 H247         -39.2149     2.6723    -1.3085 H       
 248 H248         -40.8350     1.3844     1.8434 H       
 249 H249         -40.9470    -0.4732     4.0938 H       
 250 H250         -41.9340     1.1411     5.6472 H       
 251 H251         -40.3393     1.7354     5.1256 H       
 252 H252         -42.0173     3.4274     4.9603 H       
 253 H253         -43.5079    -0.3363     4.9220 H       
 254 H254         -45.0044    -0.7424     2.4474 H       
 255 H255         -45.2033    -2.3062     4.4037 H       
 256 H256         -47.7762    -0.7972     3.7621 H       
 257 H257         -47.0323    -2.0210     2.7051 H       
 258 H258         -47.2211    -3.7018     4.5184 H       
 259 H259         -47.9649    -2.4779     5.5754 H       
 260 H260         -48.8144    -3.0221     4.1089 H       
 261 H261         -46.4945    -1.5389     6.3767 H       
 262 H262         -44.9975    -0.5951     6.1864 H       
 263 H263         -46.5589     0.1042     5.6955 H       
 264 H264         -47.5122     1.8547     3.0921 H       
 265 H265          19.4448     8.1479   -16.7064 H       
 266 H266          20.3453     9.3946   -15.8102 H       
 267 H267          19.8415     7.8977   -14.9894 H       
 268 H268          18.3646     9.7915   -14.3721 H       
 269 H269          17.9679    10.0417   -16.0892 H       
 270 H270          17.0295     7.7495   -16.2064 H       
 271 H271          17.4262     7.4992   -14.4894 H       
 272 H272          15.9493     9.3930   -13.8722 H       
 273 H273          15.5526     9.6432   -15.5892 H       
 274 H274          14.6142     7.3510   -15.7065 H       
 275 H275          15.0109     7.1007   -13.9894 H       
 276 H276          13.5340     8.9945   -13.3722 H       
 277 H277          13.1373     9.2448   -15.0892 H       
 278 H278          12.1989     6.9525   -15.2065 H       
 279 H279          12.5956     6.7023   -13.4895 H       
 280 H280          11.1187     8.5960   -12.8722 H       
 281 H281          10.7220     8.8463   -14.5893 H       
 282 H282           9.7836     6.5540   -14.7065 H       
 283 H283          10.1803     6.3038   -12.9895 H       
 284 H284           8.7034     8.1976   -12.3723 H       
 285 H285           8.3067     8.4478   -14.0893 H       
 286 H286           7.3683     6.1556   -14.2066 H       
 287 H287           7.7650     5.9053   -12.4895 H       
 288 H288           6.2881     7.7991   -11.8723 H       
 289 H289           5.8914     8.0493   -13.5893 H       
 290 H290           4.9530     5.7571   -13.7066 H       
 291 H291           5.3497     5.5068   -11.9896 H       
 292 H292           3.8728     7.4006   -11.3723 H       
 293 H293           3.4761     7.6509   -13.0894 H       
 294 H294           2.9344     5.1084   -11.4896 H       
 295 H295           2.5377     5.3586   -13.2066 H       
@<TRIPOS>BOND
   1    1    2 2
   2    1    4 1
   3    1   13 am
   4    3  124 am
   5    3    4 1
   6    3  141 1
   7    4    5 1
   8    4  142 1
   9    5    6 1
  10    5  143 1
  11    5  144 1
  12    6    7 2
  13    6   10 1
  14    7    8 1
  15    7  145 1
  16    8    9 1
  17    8  146 1
  18    9   10 2
  19    9  147 1
  20   11   12 2
  21   11   14 1
  22   11   18 am
  23   13   14 1
  24   13  148 1
  25   14   15 1
  26   14  149 1
  27   15  150 1
  28   15  151 1
  29   15  152 1
  30   16   17 2
  31   16   19 1
  32   16   25 am
  33   18   19 1
  34   18  153 1
  35   19   20 1
  36   19  154 1
  37   20   21 1
  38   20   22 1
  39   20  155 1
  40   21  156 1
  41   21  157 1
  42   21  158 1
  43   22  159 1
  44   22  160 1
  45   22  161 1
  46   23   24 2
  47   23   26 1
  48   23   35 am
  49   25   26 1
  50   25  162 1
  51   26   27 1
  52   26  163 1
  53   27   28 1
  54   27  164 1
  55   27  165 1
  56   28   29 2
  57   28   32 1
  58   29   30 1
  59   29  166 1
  60   30   31 1
  61   30  167 1
  62   31   32 2
  63   31  168 1
  64   33   34 2
  65   33   36 1
  66   33   40 am
  67   35   36 1
  68   35  169 1
  69   36   37 1
  70   36  170 1
  71   37  171 1
  72   37  172 1
  73   37  173 1
  74   38   39 2
  75   38   41 1
  76   38   52 am
  77   40   41 1
  78   40  174 1
  79   41   42 1
  80   41  175 1
  81   42   43 1
  82   42  176 1
  83   42  177 1
  84   43   44 ar
  85   43   49 ar
  86   44   45 ar
  87   44  178 1
  88   45   46 ar
  89   45  179 1
  90   46   47 1
  91   46   48 ar
  92   47  180 1
  93   48   49 ar
  94   48  181 1
  95   49  182 1
  96   50   51 2
  97   50   53 1
  98   50   63 am
  99   52   53 1
 100   52  183 1
 101   53   54 1
 102   53  184 1
 103   54   55 1
 104   54  185 1
 105   54  186 1
 106   55   56 1
 107   55  187 1
 108   55  188 1
 109   56   57 1
 110   56  189 1
 111   56  190 1
 112   57   58 1
 113   57  191 1
 114   58   59 2
 115   58   60 1
 116   59  192 1
 117   60  193 1
 118   60  194 1
 119   61   62 2
 120   61   64 1
 121   61   73 am
 122   63   64 1
 123   63  195 1
 124   64   65 1
 125   64  196 1
 126   65   66 1
 127   65  197 1
 128   65  198 1
 129   66   67 2
 130   66   70 1
 131   67   68 1
 132   67  199 1
 133   68   69 1
 134   68  200 1
 135   69   70 2
 136   69  201 1
 137   71   72 2
 138   71   74 1
 139   71   84 am
 140   73   74 1
 141   73  202 1
 142   74   75 1
 143   74  203 1
 144   75   76 1
 145   75  204 1
 146   75  205 1
 147   76   77 1
 148   76  206 1
 149   76  207 1
 150   77   78 1
 151   77  208 1
 152   77  209 1
 153   78   79 1
 154   78  210 1
 155   79   80 2
 156   79   81 1
 157   80  211 1
 158   81  212 1
 159   81  213 1
 160   82   83 2
 161   82   85 1
 162   82   95 am
 163   84   85 1
 164   84  214 1
 165   85   86 1
 166   85  215 1
 167   86   87 1
 168   86  216 1
 169   86  217 1
 170   87   88 1
 171   87  218 1
 172   87  219 1
 173   88   89 1
 174   88  220 1
 175   88  221 1
 176   89   90 1
 177   89  222 1
 178   90   91 2
 179   90   92 1
 180   91  223 1
 181   92  224 1
 182   92  225 1
 183   93   94 2
 184   93   96 1
 185   93  103 am
 186   95   96 1
 187   95  226 1
 188   96   97 1
 189   96  227 1
 190   97   98 1
 191   97  100 1
 192   97  228 1
 193   98   99 1
 194   98  229 1
 195   98  230 1
 196   99  231 1
 197   99  232 1
 198   99  233 1
 199  100  234 1
 200  100  235 1
 201  100  236 1
 202  101  102 2
 203  101  104 1
 204  101  111 am
 205  103  104 1
 206  103  237 1
 207  104  105 1
 208  104  238 1
 209  105  106 1
 210  105  239 1
 211  105  240 1
 212  106  107 1
 213  106  108 1
 214  106  241 1
 215  107  242 1
 216  107  243 1
 217  107  244 1
 218  108  245 1
 219  108  246 1
 220  108  247 1
 221  109  110 2
 222  109  112 1
 223  109  117 am
 224  111  112 1
 225  111  248 1
 226  112  113 1
 227  112  249 1
 228  113  114 1
 229  113  250 1
 230  113  251 1
 231  114  252 1
 232  115  116 2
 233  115  118 1
 234  115  123 1
 235  117  118 1
 236  117  253 1
 237  118  119 1
 238  118  254 1
 239  119  120 1
 240  119  122 1
 241  119  255 1
 242  120  121 1
 243  120  256 1
 244  120  257 1
 245  121  258 1
 246  121  259 1
 247  121  260 1
 248  122  261 1
 249  122  262 1
 250  122  263 1
 251  123  264 1
 252  124  125 2
 253  124  140 1
 254  126  127 1
 255  126  265 1
 256  126  266 1
 257  126  267 1
 258  127  128 1
 259  127  268 1
 260  127  269 1
 261  128  129 1
 262  128  270 1
 263  128  271 1
 264  129  130 1
 265  129  272 1
 266  129  273 1
 267  130  131 1
 268  130  274 1
 269  130  275 1
 270  131  132 1
 271  131  276 1
 272  131  277 1
 273  132  133 1
 274  132  278 1
 275  132  279 1
 276  133  134 1
 277  133  280 1
 278  133  281 1
 279  134  135 1
 280  134  282 1
 281  134  283 1
 282  135  136 1
 283  135  284 1
 284  135  285 1
 285  136  137 1
 286  136  286 1
 287  136  287 1
 288  137  138 1
 289  137  288 1
 290  137  289 1
 291  138  139 1
 292  138  290 1
 293  138  291 1
 294  139  140 1
 295  139  292 1
 296  139  293 1
 297  140  294 1
 298  140  295 1

#	End of record

