#	Name: ASD09530006
#	Creating user name:	WinNT
#	Creation time:	15. 06. 2019 21:22

#	Modifying user name:	WinNT
#	Modification time:	15. 06. 2019 21:22

#	Program:	/corina/corina34_cracker 3.40 0067  02.08.2006

@<TRIPOS>MOLECULE
ASD09530006
  40   42    0    0    0
SMALL
NO_CHARGES


@<TRIPOS>ATOM
   1 N1             0.8013     1.6433     0.7745 N.am    
   2 C2             0.6353     0.3210     0.7184 C.2     
   3 C3             1.7740    -0.6402     0.5120 C.3     
   4 N4             2.9637     0.1145     0.0909 N.am    
   5 C5             3.2451     1.3783     0.7926 C.3     
   6 C6             2.0686     2.3274     0.5570 C.3     
   7 O7            -0.4852    -0.1270     0.8397 O.2     
   8 C8             3.7644    -0.3326    -0.8968 C.2     
   9 O9             4.7396     0.3098    -1.2245 O.2     
  10 C10            3.4479    -1.6305    -1.5941 C.3     
  11 C11            4.4894    -1.9008    -2.6493 C.ar    
  12 C12            4.1049    -2.1296    -3.9573 C.ar    
  13 C13            5.0601    -2.3775    -4.9252 C.ar    
  14 C14            6.3999    -2.3963    -4.5852 C.ar    
  15 C15            6.7844    -2.1666    -3.2775 C.ar    
  16 C16            5.8294    -1.9143    -2.3104 C.ar    
  17 C17            3.4478    -2.7536    -0.5892 C.ar    
  18 C18            2.3809    -3.6308    -0.5332 C.ar    
  19 C19            2.3808    -4.6609     0.3886 C.ar    
  20 C20            3.4477    -4.8141     1.2541 C.ar    
  21 C21            4.5150    -3.9374     1.1975 C.ar    
  22 C22            4.5171    -2.9098     0.2728 C.ar    
  23 H23            0.0227     2.1877     0.9700 H       
  24 H24            1.9845    -1.1626     1.4453 H       
  25 H25            1.5072    -1.3618    -0.2601 H       
  26 H26            3.3570     1.1892     1.8602 H       
  27 H27            4.1598     1.8216     0.3991 H       
  28 H28            2.1055     2.6971    -0.4678 H       
  29 H29            2.1441     3.1699     1.2444 H       
  30 H30            2.4659    -1.5616    -2.0620 H       
  31 H31            3.0581    -2.1150    -4.2228 H       
  32 H32            4.7597    -2.5570    -5.9469 H       
  33 H33            7.1462    -2.5907    -5.3413 H       
  34 H34            7.8312    -2.1815    -3.0118 H       
  35 H35            6.1301    -1.7312    -1.2894 H       
  36 H36            1.5474    -3.5112    -1.2095 H       
  37 H37            1.5469    -5.3459     0.4328 H       
  38 H38            3.4472    -5.6185     1.9748 H       
  39 H39            5.3484    -4.0568     1.8740 H       
  40 H40            5.3526    -2.2271     0.2261 H       
@<TRIPOS>BOND
   1    1    2 am
   2    1    6 1
   3    1   23 1
   4    2    3 1
   5    2    7 2
   6    3    4 1
   7    3   24 1
   8    3   25 1
   9    4    5 1
  10    4    8 am
  11    5    6 1
  12    5   26 1
  13    5   27 1
  14    6   28 1
  15    6   29 1
  16    8    9 2
  17    8   10 1
  18   10   11 1
  19   10   17 1
  20   10   30 1
  21   11   12 ar
  22   11   16 ar
  23   12   13 ar
  24   12   31 1
  25   13   14 ar
  26   13   32 1
  27   14   15 ar
  28   14   33 1
  29   15   16 ar
  30   15   34 1
  31   16   35 1
  32   17   18 ar
  33   17   22 ar
  34   18   19 ar
  35   18   36 1
  36   19   20 ar
  37   19   37 1
  38   20   21 ar
  39   20   38 1
  40   21   22 ar
  41   21   39 1
  42   22   40 1

#	End of record

