#	Name: ASD01230329
#	Creating user name:	WinNT
#	Creation time:	15. 06. 2019 19:14

#	Modifying user name:	WinNT
#	Modification time:	15. 06. 2019 19:14

#	Program:	/corina/corina34_cracker 3.40 0067  02.08.2006

@<TRIPOS>MOLECULE
ASD01230329
  40   42    0    0    0
SMALL
NO_CHARGES


@<TRIPOS>ATOM
   1 S1            -0.7005     1.3995     1.8069 S.o2    
   2 N2            -0.5399    -0.2039     1.4309 N.am    
   3 C3             0.1471    -1.0338     2.1813 C.2     
   4 N4             0.7996    -0.7039     3.3337 N.pl3   
   5 C5             0.8842     0.6582     3.8663 C.3     
   6 C6            -0.4184     1.4197     3.6055 C.3     
   7 C7             0.2001    -2.4325     1.7151 C.2     
   8 C8             0.8590    -3.3605     2.4611 C.2     
   9 C9             1.4739    -2.9647     3.6614 C.2     
  10 C10            1.4327    -1.6850     4.0628 C.2     
  11 S11           -0.5832    -2.8973     0.2067 S.3     
  12 C12           -0.1121    -4.5848     0.0191 C.ar    
  13 C13           -0.9377    -5.5958     0.4968 C.ar    
  14 C14           -0.5655    -6.9170     0.3476 C.ar    
  15 C15            0.6274    -7.2350    -0.2760 C.ar    
  16 C16            1.4515    -6.2317    -0.7526 C.ar    
  17 C17            1.0832    -4.9084    -0.6120 C.ar    
  18 C18            1.0305    -8.6783    -0.4360 C.3     
  19 C19            1.1866    -9.0023    -1.9231 C.3     
  20 C20            2.3607    -8.9187     0.2807 C.3     
  21 O21            0.3689     2.0363     1.1214 O.2     
  22 O22           -2.0556     1.7033     1.5055 O.2     
  23 H23            1.0657     0.6137     4.9401 H       
  24 H24            1.7096     1.1821     3.3842 H       
  25 H25           -0.3241     2.4478     3.9551 H       
  26 H26           -1.2452     0.9269     4.1168 H       
  27 H27            0.9086    -4.3888     2.1350 H       
  28 H28            1.9842    -3.6986     4.2676 H       
  29 H29            1.9141    -1.4149     4.9911 H       
  30 H30           -1.8690    -5.3482     0.9844 H       
  31 H31           -1.2065    -7.7031     0.7185 H       
  32 H32            2.3823    -6.4837    -1.2389 H       
  33 H33            1.7251    -4.1256    -0.9884 H       
  34 H34            0.2632    -9.3200    -0.0029 H       
  35 H35            1.4781   -10.0462    -2.0389 H       
  36 H36            0.2389    -8.8310    -2.4337 H       
  37 H37            1.9538    -8.3606    -2.3562 H       
  38 H38            2.2496    -8.6879     1.3402 H       
  39 H39            2.6523    -9.9626     0.1649 H       
  40 H40            3.1280    -8.2770    -0.1524 H       
@<TRIPOS>BOND
   1    1    2 am
   2    1    6 1
   3    1   21 2
   4    1   22 2
   5    2    3 2
   6    3    4 1
   7    3    7 1
   8    4    5 1
   9    4   10 1
  10    5    6 1
  11    5   23 1
  12    5   24 1
  13    6   25 1
  14    6   26 1
  15    7    8 2
  16    7   11 1
  17    8    9 1
  18    8   27 1
  19    9   10 2
  20    9   28 1
  21   10   29 1
  22   11   12 1
  23   12   13 ar
  24   12   17 ar
  25   13   14 ar
  26   13   30 1
  27   14   15 ar
  28   14   31 1
  29   15   16 ar
  30   15   18 1
  31   16   17 ar
  32   16   32 1
  33   17   33 1
  34   18   19 1
  35   18   20 1
  36   18   34 1
  37   19   35 1
  38   19   36 1
  39   19   37 1
  40   20   38 1
  41   20   39 1
  42   20   40 1

#	End of record

