#	Name: ASD08150340
#	Creating user name:	WinNT
#	Creation time:	15. 06. 2019 21:15

#	Modifying user name:	WinNT
#	Modification time:	15. 06. 2019 21:15

#	Program:	/corina/corina34_cracker 3.40 0067  02.08.2006

@<TRIPOS>MOLECULE
ASD08150340
  77   83    0    0    0
SMALL
NO_CHARGES


@<TRIPOS>ATOM
   1 N1            -0.0006     1.2387     2.5345 N.am    
   2 C2             0.0087    -0.0872     2.7296 C.2     
   3 N3             1.1423    -0.8111     2.7781 N.am    
   4 C4             2.4363    -0.1268     2.6103 C.3     
   5 C5             2.3932     1.3671     2.3916 C.ar    
   6 C6             3.5468     2.1117     2.2211 C.ar    
   7 N7             3.4995     3.4119     2.0307 N.ar    
   8 C8             2.3388     4.0767     1.9923 C.ar    
   9 C9             1.1152     3.3807     2.1588 C.ar    
  10 C10            1.1532     1.9832     2.3649 C.ar    
  11 C11           -0.0953     4.0816     2.1186 C.ar    
  12 C12           -0.0832     5.4504     1.9160 C.ar    
  13 C13            1.1317     6.1328     1.7520 C.ar    
  14 C14            2.3160     5.4681     1.7876 C.ar    
  15 O15           -1.0538    -0.6614     2.8693 O.2     
  16 C16           -1.3623     6.2008     1.8716 C.ar    
  17 C17           -1.2365     1.9008     2.4947 C.ar    
  18 C18           -1.9876     1.8992     1.3266 C.ar    
  19 C19           -3.2041     2.5503     1.2873 C.ar    
  20 C20           -3.6770     3.2072     2.4163 C.ar    
  21 C21           -2.9257     3.2086     3.5842 C.ar    
  22 C22           -1.7113     2.5527     3.6246 C.ar    
  23 N23           -4.9095     3.8675     2.3766 N.3     
  24 C24           -2.4842     5.6499     1.2435 C.ar    
  25 C25           -5.9617     3.0564     3.0035 C.3     
  26 C26           -7.2482     3.8830     3.1028 C.3     
  27 N27           -7.5756     4.4003     1.7654 N.am    
  28 C28           -6.5254     5.1068     1.0163 C.3     
  29 C29           -5.2673     4.2321     0.9993 C.3     
  30 C30           -8.8054     4.2316     1.2404 C.2     
  31 O31           -9.6595     3.6468     1.8723 O.2     
  32 C32           -9.1191     4.7698    -0.1318 C.3     
  33 N33           -3.6265     6.2960     1.1927 N.ar    
  34 C34           -3.7741     7.5002     1.7327 C.ar    
  35 C35           -2.6894     8.1226     2.3837 C.ar    
  36 C36           -1.4615     7.4585     2.4594 C.ar    
  37 C37          -10.5718     4.4461    -0.4867 C.3     
  38 C38            1.0903    -2.2590     2.9954 C.3     
  39 N39           -4.8291     8.3681     1.8180 N.pl3   
  40 N40           -4.4270     9.5163     2.5068 N.2     
  41 C41           -3.1770     9.4138     2.8573 C.2     
  42 C42           -2.3784    10.4427     3.6154 C.3     
  43 C43           -3.4382     3.9215     4.8091 C.3     
  44 F44           -2.4513     3.9133     5.8006 F       
  45 F45           -3.7575     5.2432     4.4799 F       
  46 F46           -4.5815     3.2699     5.2837 F       
  47 H47            3.0369    -0.3197     3.4992 H       
  48 H48            2.9472    -0.5770     1.7591 H       
  49 H49            4.5055     1.6150     2.2451 H       
  50 H50           -1.0316     3.5583     2.2443 H       
  51 H51            1.1253     7.2012     1.5943 H       
  52 H52            3.2418     6.0093     1.6595 H       
  53 H53           -1.6198     1.3888     0.4488 H       
  54 H54           -3.7881     2.5494     0.3788 H       
  55 H55           -1.1289     2.5503     4.5341 H       
  56 H56           -2.4094     4.6724     0.7904 H       
  57 H57           -6.1456     2.1686     2.3986 H       
  58 H58           -5.6437     2.7572     4.0022 H       
  59 H59           -8.0620     3.2523     3.4607 H       
  60 H60           -7.0967     4.7152     3.7902 H       
  61 H61           -6.8612     5.2852    -0.0052 H       
  62 H62           -6.3043     6.0567     1.5033 H       
  63 H63           -4.4457     4.7854     0.5444 H       
  64 H64           -5.4608     3.3278     0.4222 H       
  65 H65           -8.9752     5.8502    -0.1400 H       
  66 H66           -8.4551     4.3092    -0.8633 H       
  67 H67           -0.6136     7.9108     2.9522 H       
  68 H68          -10.7157     3.3657    -0.4785 H       
  69 H69          -11.2358     4.9067     0.2448 H       
  70 H70          -10.7987     4.8354    -1.4792 H       
  71 H71            0.0518    -2.5743     3.0959 H       
  72 H72            1.5447    -2.7703     2.1467 H       
  73 H73            1.6358    -2.5097     3.9052 H       
  74 H74           -5.7158     8.2113     1.4572 H       
  75 H75           -2.4706    10.2578     4.6856 H       
  76 H76           -1.3302    10.3759     3.3240 H       
  77 H77           -2.7569    11.4385     3.3848 H       
@<TRIPOS>BOND
   1    1    2 am
   2    1   10 1
   3    1   17 1
   4    2    3 am
   5    2   15 2
   6    3    4 1
   7    3   38 1
   8    4    5 1
   9    4   47 1
  10    4   48 1
  11    5    6 ar
  12    5   10 ar
  13    6    7 ar
  14    6   49 1
  15    7    8 ar
  16    8    9 ar
  17    8   14 ar
  18    9   10 ar
  19    9   11 ar
  20   11   12 ar
  21   11   50 1
  22   12   13 ar
  23   12   16 1
  24   13   14 ar
  25   13   51 1
  26   14   52 1
  27   16   24 ar
  28   16   36 ar
  29   17   18 ar
  30   17   22 ar
  31   18   19 ar
  32   18   53 1
  33   19   20 ar
  34   19   54 1
  35   20   21 ar
  36   20   23 1
  37   21   22 ar
  38   21   43 1
  39   22   55 1
  40   23   25 1
  41   23   29 1
  42   24   33 ar
  43   24   56 1
  44   25   26 1
  45   25   57 1
  46   25   58 1
  47   26   27 1
  48   26   59 1
  49   26   60 1
  50   27   28 1
  51   27   30 am
  52   28   29 1
  53   28   61 1
  54   28   62 1
  55   29   63 1
  56   29   64 1
  57   30   31 2
  58   30   32 1
  59   32   37 1
  60   32   65 1
  61   32   66 1
  62   33   34 ar
  63   34   35 ar
  64   34   39 1
  65   35   36 ar
  66   35   41 1
  67   36   67 1
  68   37   68 1
  69   37   69 1
  70   37   70 1
  71   38   71 1
  72   38   72 1
  73   38   73 1
  74   39   40 1
  75   39   74 1
  76   40   41 2
  77   41   42 1
  78   42   75 1
  79   42   76 1
  80   42   77 1
  81   43   44 1
  82   43   45 1
  83   43   46 1

#	End of record

