#	Name: ASD04590538
#	Creating user name:	WinNT
#	Creation time:	15. 06. 2019 20:51

#	Modifying user name:	WinNT
#	Modification time:	15. 06. 2019 20:51

#	Program:	/corina/corina34_cracker 3.40 0067  02.08.2006

@<TRIPOS>MOLECULE
ASD04590538
  47   50    0    0    0
SMALL
NO_CHARGES


@<TRIPOS>ATOM
   1 C1            -0.0169     1.3923     0.0097 C.ar    
   2 C2             0.0021    -0.0041     0.0020 C.ar    
   3 C3            -2.4013    -0.0379     0.0248 C.ar    
   4 C4            -2.4140     1.3672     0.0440 C.ar    
   5 C5            -1.2191     2.0735     0.0306 C.ar    
   6 N6            -3.6929    -0.4513     0.0448 N.2     
   7 C7            -4.4887     0.5899     0.0747 C.2     
   8 N8            -3.7458     1.7406     0.0755 N.pl3   
   9 C9            -5.9649     0.5311     0.1024 C.2     
  10 C10           -6.7501    -0.6448     0.1017 C.2     
  11 C11           -8.0527    -0.2719     0.1319 C.2     
  12 N12           -8.0970     1.0861     0.1510 N.pl3   
  13 N13           -6.7813     1.5659     0.1378 N.2     
  14 N14           -6.2665    -1.9636     0.0742 N.am    
  15 C15           -7.1302    -2.9982     0.0770 C.2     
  16 O16           -8.3251    -2.7908     0.1032 O.2     
  17 C17           -1.1778    -0.7174     0.0095 C.ar    
  18 S18           -6.5237    -4.6522     0.0425 S.o2    
  19 O19            1.1915    -0.6643    -0.0133 O.3     
  20 C20            1.1408    -2.0924    -0.0205 C.3     
  21 O21            1.1536     2.0851     0.0022 O.3     
  22 C22            1.0634     3.5113     0.0108 C.3     
  23 C23           -6.2394    -5.0684    -1.6459 C.ar    
  24 O24           -5.2487    -4.6253     0.6693 O.2     
  25 O25           -7.5903    -5.4800     0.4856 O.2     
  26 C26           -5.0062    -4.8221    -2.2200 C.ar    
  27 C27           -7.2478    -5.6462    -2.3944 C.ar    
  28 C28           -7.0252    -5.9733    -3.7187 C.ar    
  29 C29           -5.7930    -5.7219    -4.2953 C.ar    
  30 C30           -4.7825    -5.1483    -3.5443 C.ar    
  31 Cl31          -5.5125    -6.1329    -5.9585 Cl      
  32 H32           -1.2289     3.1534     0.0368 H       
  33 H33           -4.0892     2.6476     0.0946 H       
  34 H34           -8.9043    -0.9361     0.1390 H       
  35 H35           -8.9005     1.6290     0.1733 H       
  36 H36           -5.3110    -2.1295     0.0532 H       
  37 H37           -1.1579    -1.7972     0.0031 H       
  38 H38            0.6232    -2.4420     0.8728 H       
  39 H39            0.6056    -2.4325    -0.9070 H       
  40 H40            2.1548    -2.4919    -0.0327 H       
  41 H41            0.5192     3.8462    -0.8723 H       
  42 H42            0.5362     3.8366     0.9076 H       
  43 H43            2.0660     3.9388     0.0035 H       
  44 H44           -4.2174    -4.3743    -1.6336 H       
  45 H45           -8.2097    -5.8424    -1.9441 H       
  46 H46           -7.8129    -6.4254    -4.3031 H       
  47 H47           -3.8205    -4.9514    -3.9940 H       
@<TRIPOS>BOND
   1    1    2 ar
   2    1   21 1
   3    1    5 ar
   4    2   17 ar
   5    2   19 1
   6    3    4 ar
   7    3    6 1
   8    3   17 ar
   9    4    5 ar
  10    4    8 1
  11    5   32 1
  12    6    7 2
  13    7    8 1
  14    7    9 1
  15    8   33 1
  16    9   10 1
  17    9   13 2
  18   10   11 2
  19   10   14 1
  20   11   12 1
  21   11   34 1
  22   12   13 1
  23   12   35 1
  24   14   15 am
  25   14   36 1
  26   15   16 2
  27   15   18 1
  28   17   37 1
  29   18   23 1
  30   18   24 2
  31   18   25 2
  32   19   20 1
  33   20   38 1
  34   20   39 1
  35   20   40 1
  36   21   22 1
  37   22   41 1
  38   22   42 1
  39   22   43 1
  40   23   26 ar
  41   23   27 ar
  42   26   30 ar
  43   26   44 1
  44   27   28 ar
  45   27   45 1
  46   28   29 ar
  47   28   46 1
  48   29   30 ar
  49   29   31 1
  50   30   47 1

#	End of record

