#	Name: ASD03092175
#	Creating user name:	WinNT
#	Creation time:	15. 06. 2019 20:32

#	Modifying user name:	WinNT
#	Modification time:	15. 06. 2019 20:32

#	Program:	/corina/corina34_cracker 3.40 0067  02.08.2006

@<TRIPOS>MOLECULE
ASD03092175
  47   50    0    0    0
SMALL
NO_CHARGES


@<TRIPOS>ATOM
   1 N1            -0.0948     1.3336    -0.4825 N.pl3   
   2 C2            -0.2776     0.0824     0.0264 C.2     
   3 C3            -1.6175    -0.0840     0.2322 C.2     
   4 C4            -2.2609     1.0962    -0.1622 C.2     
   5 N5            -1.3512     1.9443    -0.5830 N.2     
   6 N6            -3.6398     1.3334    -0.1107 N.pl3   
   7 C7            -4.1435     2.5998    -0.4229 C.ar    
   8 C8            -5.4169     2.7278    -0.9622 C.ar    
   9 C9            -5.9139     3.9814    -1.2708 C.ar    
  10 C10           -5.1414     5.1095    -1.0423 C.ar    
  11 C11           -3.3730     3.7314    -0.1888 C.ar    
  12 C12            0.7811    -0.9131     0.3043 C.ar    
  13 C13            1.1887     1.9351    -0.8527 C.3     
  14 C14            0.5558    -1.9346     1.2269 C.ar    
  15 C15            1.5449    -2.8608     1.4849 C.ar    
  16 C16            2.7662    -2.7806     0.8299 C.ar    
  17 C17            2.9960    -1.7653    -0.0937 C.ar    
  18 C18            2.0055    -0.8359    -0.3599 C.ar    
  19 C19           -3.8702     4.9832    -0.5041 C.ar    
  20 C20            1.4126     1.7734    -2.3576 C.3     
  21 O21            0.4020     2.4904    -3.0693 O.3     
  22 O22            3.7308    -3.7006     1.1060 O.3     
  23 C23            4.8009    -3.8147     0.1620 C.3     
  24 C24            5.2853    -2.4014    -0.1891 C.3     
  25 O25            4.1852    -1.6773    -0.7505 O.3     
  26 F26           -5.6277     6.3330    -1.3449 F       
  27 F27           -7.1526     4.1062    -1.7954 F       
  28 F28           -3.1187     6.0837    -0.2820 F       
  29 C29            2.7893     2.3269    -2.7308 C.3     
  30 H30           -2.0956    -0.9679     0.6279 H       
  31 H31           -4.2457     0.6192     0.1417 H       
  32 H32           -6.0187     1.8490    -1.1410 H       
  33 H33           -2.3845     3.6337     0.2350 H       
  34 H34            1.1800     2.9951    -0.5986 H       
  35 H35            1.9929     1.4380    -0.3103 H       
  36 H36           -0.3927    -2.0002     1.7393 H       
  37 H37            1.3686    -3.6512     2.1994 H       
  38 H38            2.1834    -0.0464    -1.0750 H       
  39 H39            1.3622     0.7169    -2.6209 H       
  40 H40            0.3880     3.4393    -2.8833 H       
  41 H41            5.6193    -4.3851     0.6013 H       
  42 H42            4.4449    -4.3154    -0.7383 H       
  43 H43            5.6350    -1.8982     0.7123 H       
  44 H44            6.0957    -2.4605    -0.9157 H       
  45 H45            3.5602     1.7800    -2.1879 H       
  46 H46            2.9488     2.2117    -3.8029 H       
  47 H47            2.8397     3.3834    -2.4675 H       
@<TRIPOS>BOND
   1    1    2 1
   2    1   13 1
   3    1    5 1
   4    2    3 2
   5    2   12 1
   6    3    4 1
   7    3   30 1
   8    4    5 2
   9    4    6 1
  10    6    7 1
  11    6   31 1
  12    7    8 ar
  13    7   11 ar
  14    8    9 ar
  15    8   32 1
  16    9   10 ar
  17    9   27 1
  18   10   19 ar
  19   10   26 1
  20   11   19 ar
  21   11   33 1
  22   12   14 ar
  23   12   18 ar
  24   13   20 1
  25   13   34 1
  26   13   35 1
  27   14   15 ar
  28   14   36 1
  29   15   16 ar
  30   15   37 1
  31   16   17 ar
  32   16   22 1
  33   17   18 ar
  34   17   25 1
  35   18   38 1
  36   19   28 1
  37   20   21 1
  38   20   29 1
  39   20   39 1
  40   21   40 1
  41   22   23 1
  42   23   24 1
  43   23   41 1
  44   23   42 1
  45   24   25 1
  46   24   43 1
  47   24   44 1
  48   29   45 1
  49   29   46 1
  50   29   47 1

#	End of record

