#	Name: ASD01028177
#	Creating user name:	WinNT
#	Creation time:	15. 06. 2019 18:56

#	Modifying user name:	WinNT
#	Modification time:	15. 06. 2019 18:56

#	Program:	/corina/corina34_cracker 3.40 0067  02.08.2006

@<TRIPOS>MOLECULE
ASD01028177
  48   51    0    0    0
SMALL
NO_CHARGES


@<TRIPOS>ATOM
   1 C1            -0.3268     1.4993    -0.5007 C.ar    
   2 C2            -0.1166     0.1101    -0.5473 C.ar    
   3 C3             1.0437    -0.3755    -1.1611 C.ar    
   4 C4             1.9354     0.5371    -1.6966 C.ar    
   5 C5             1.6591     1.8901    -1.6118 C.ar    
   6 N6             0.5601     2.3282    -1.0294 N.ar    
   7 N7            -1.4691     2.0028     0.0957 N.pl3   
   8 N8            -4.1190     6.1622     0.3185 N.pl3   
   9 N9            -3.6587     7.4658     0.5399 N.2     
  10 C10           -2.3663     7.4569     0.6905 C.2     
  11 C11           -1.9052     6.1230     0.5734 C.ar    
  12 C12           -0.6370     5.5310     0.6464 C.ar    
  13 C13           -0.5052     4.1841     0.4885 C.ar    
  14 C14           -1.6244     3.3827     0.2546 C.ar    
  15 C15           -2.8852     3.9453     0.1788 C.ar    
  16 C16           -3.0370     5.3193     0.3373 C.ar    
  17 C17           -1.0997    -0.8179     0.0398 C.2     
  18 O18           -2.0472    -0.3835     0.6661 O.2     
  19 N19           -0.9486    -2.1479    -0.1176 N.am    
  20 O20           -2.8069    -4.8154     0.9508 O.3     
  21 N21           -1.8638    -4.3311     0.3694 N.2     
  22 C22           -1.8785    -3.0256     0.4377 C.2     
  23 C23           -3.0322    -2.6811     1.1913 C.2     
  24 C24           -3.5915    -3.8743     1.4953 C.2     
  25 C25           -4.8511    -4.1017     2.2909 C.3     
  26 C26           -6.0273    -3.4193     1.5898 C.3     
  27 C27           -5.1227    -5.6037     2.3975 C.3     
  28 C28           -4.6820    -3.5132     3.6930 C.3     
  29 H29            1.2385    -1.4364    -1.2151 H       
  30 H30            2.8405     0.1958    -2.1768 H       
  31 H31            2.3564     2.6007    -2.0304 H       
  32 H32           -2.1623     1.3981     0.4036 H       
  33 H33           -5.0427     5.9002     0.1800 H       
  34 H34           -1.7478     8.3231     0.8738 H       
  35 H35            0.2351     6.1419     0.8268 H       
  36 H36            0.4740     3.7321     0.5455 H       
  37 H37           -3.7478     3.3214    -0.0030 H       
  38 H38           -0.1928    -2.4944    -0.6172 H       
  39 H39           -3.3816    -1.6950     1.4594 H       
  40 H40           -6.1478    -3.8386     0.5909 H       
  41 H41           -6.9383    -3.5838     2.1652 H       
  42 H42           -5.8339    -2.3493     1.5138 H       
  43 H43           -4.2847    -6.0898     2.8970 H       
  44 H44           -6.0337    -5.7682     2.9729 H       
  45 H45           -5.2431    -6.0229     1.3986 H       
  46 H46           -4.4885    -2.4432     3.6170 H       
  47 H47           -5.5930    -3.6777     4.2684 H       
  48 H48           -3.8440    -3.9994     4.1925 H       
@<TRIPOS>BOND
   1    1    2 ar
   2    1    6 ar
   3    1    7 1
   4    2    3 ar
   5    2   17 1
   6    3    4 ar
   7    3   29 1
   8    4    5 ar
   9    4   30 1
  10    5    6 ar
  11    5   31 1
  12    7   14 1
  13    7   32 1
  14    8    9 1
  15    8   16 1
  16    8   33 1
  17    9   10 2
  18   10   11 1
  19   10   34 1
  20   11   12 ar
  21   11   16 ar
  22   12   13 ar
  23   12   35 1
  24   13   14 ar
  25   13   36 1
  26   14   15 ar
  27   15   16 ar
  28   15   37 1
  29   17   18 2
  30   17   19 am
  31   19   22 1
  32   19   38 1
  33   20   21 1
  34   20   24 1
  35   21   22 2
  36   22   23 1
  37   23   24 2
  38   23   39 1
  39   24   25 1
  40   25   26 1
  41   25   28 1
  42   25   27 1
  43   26   40 1
  44   26   41 1
  45   26   42 1
  46   27   43 1
  47   27   44 1
  48   27   45 1
  49   28   46 1
  50   28   47 1
  51   28   48 1

#	End of record

