#	Name: ASD01901344
#	Creating user name:	WinNT
#	Creation time:	15. 06. 2019 19:53

#	Modifying user name:	WinNT
#	Modification time:	15. 06. 2019 19:53

#	Program:	/corina/corina34_cracker 3.40 0067  02.08.2006

@<TRIPOS>MOLECULE
ASD01901344
  40   43    0    0    0
SMALL
NO_CHARGES


@<TRIPOS>ATOM
   1 C1            -0.0169     1.3939     0.0097 C.ar    
   2 C2             1.1912     2.0671     0.0018 C.ar    
   3 C3             2.3717     1.3403    -0.0134 C.ar    
   4 N4             2.3566     0.0199    -0.0208 N.ar    
   5 C5             1.2287    -0.6621    -0.0137 C.ar    
   6 C6             0.0021    -0.0041     0.0020 C.ar    
   7 C7            -1.2664    -0.7749     0.0105 C.2     
   8 N8            -3.2556    -1.3913     1.1229 N.2     
   9 C9            -2.1370    -0.7085     1.1199 C.2     
  10 C10           -1.6107    -1.5545    -1.0580 C.2     
  11 N11           -2.7830    -2.2496    -1.0177 N.pl3   
  12 C12           -3.5990    -2.1632     0.0808 C.2     
  13 C13           -3.3903    -3.0946    -1.9072 C.2     
  14 C14           -4.5470    -3.5006    -1.3420 C.2     
  15 N15           -4.6581    -2.9293    -0.1391 N.2     
  16 C16           -5.5461    -4.4423    -1.9635 C.3     
  17 O17           -5.0819    -4.8456    -3.2535 O.3     
  18 C18           -5.8720    -5.7014    -3.9536 C.ar    
  19 C19           -7.0721    -6.1395    -3.4127 C.ar    
  20 C20           -5.4826    -6.1340    -5.2129 C.ar    
  21 C21           -6.2874    -7.0040    -5.9226 C.ar    
  22 C22           -7.4805    -7.4433    -5.3791 C.ar    
  23 C23           -7.8734    -7.0094    -4.1264 C.ar    
  24 F24            3.5549     1.9925    -0.0212 F       
  25 C25            1.2240     3.5737     0.0091 C.3     
  26 H26           -0.9516     1.9347     0.0260 H       
  27 H27            1.2565    -1.7417    -0.0201 H       
  28 H28           -1.8800    -0.0931     1.9694 H       
  29 H29           -0.9644    -1.6186    -1.9209 H       
  30 H30           -3.0149    -3.3819    -2.8782 H       
  31 H31           -5.6618    -5.3203    -1.3281 H       
  32 H32           -6.5069    -3.9377    -2.0645 H       
  33 H33           -7.3794    -5.8009    -2.4343 H       
  34 H34           -4.5511    -5.7907    -5.6382 H       
  35 H35           -5.9847    -7.3411    -6.9030 H       
  36 H36           -8.1087    -8.1229    -5.9358 H       
  37 H37           -8.8077    -7.3507    -3.7057 H       
  38 H38            1.2415     3.9318     1.0384 H       
  39 H39            2.1168     3.9202    -0.5114 H       
  40 H40            0.3373     3.9588    -0.4946 H       
@<TRIPOS>BOND
   1    1    6 ar
   2    1    2 ar
   3    1   26 1
   4    2    3 ar
   5    2   25 1
   6    3    4 ar
   7    3   24 1
   8    4    5 ar
   9    5    6 ar
  10    5   27 1
  11    6    7 1
  12    7   10 2
  13    7    9 1
  14    8    9 2
  15    8   12 1
  16    9   28 1
  17   10   11 1
  18   10   29 1
  19   11   13 1
  20   11   12 1
  21   12   15 2
  22   13   14 2
  23   13   30 1
  24   14   15 1
  25   14   16 1
  26   16   17 1
  27   16   31 1
  28   16   32 1
  29   17   18 1
  30   18   20 ar
  31   18   19 ar
  32   19   23 ar
  33   19   33 1
  34   20   21 ar
  35   20   34 1
  36   21   22 ar
  37   21   35 1
  38   22   23 ar
  39   22   36 1
  40   23   37 1
  41   25   38 1
  42   25   39 1
  43   25   40 1

#	End of record

