#	Name: ASD01148542
#	Creating user name:	WinNT
#	Creation time:	15. 06. 2019 19:02

#	Modifying user name:	WinNT
#	Modification time:	15. 06. 2019 19:02

#	Program:	/corina/corina34_cracker 3.40 0067  02.08.2006

@<TRIPOS>MOLECULE
ASD01148542
  52   55    0    0    0
SMALL
NO_CHARGES


@<TRIPOS>ATOM
   1 C1            -0.0180     1.4360     0.0451 C.ar    
   2 C2            -0.0166     0.0527     0.0405 C.ar    
   3 C3             1.1826    -0.6373     0.0176 C.ar    
   4 C4             2.3780     0.0557    -0.0008 C.ar    
   5 C5             2.3760     1.4383     0.0038 C.ar    
   6 C6             1.1785     2.1282     0.0267 C.ar    
   7 C7             3.6800     2.1935    -0.0157 C.3     
   8 O8             4.6901     1.4604    -0.7379 O.3     
   9 C9             3.5604     3.4832    -0.8622 C.3     
  10 C10            4.0470     3.0293    -2.2254 C.2     
  11 N11            4.6599     1.9008    -2.0811 N.2     
  12 C12            3.8535     3.7504    -3.4951 C.ar    
  13 C13            4.3767     3.1972    -4.7419 C.ar    
  14 C14            3.1679     4.9571    -3.5157 C.ar    
  15 C15            2.9717     5.6554    -4.6940 C.ar    
  16 C16            3.4519     5.1795    -5.9061 C.ar    
  17 C17            4.1761     3.9115    -5.9468 C.ar    
  18 C18            3.2274     5.9459    -7.1455 C.2     
  19 O19            3.7395     5.5817    -8.1867 O.2     
  20 N20            2.4548     7.0500    -7.1245 N.am    
  21 C21            4.6778     3.3929    -7.1472 C.ar    
  22 C22            5.0691     1.9799    -4.7693 C.ar    
  23 C23            4.1462     2.5122     1.4062 C.3     
  24 F24            4.3115     1.3209     2.1208 F       
  25 F25            5.3645     3.1980     1.3548 F       
  26 F26            3.1890     3.3092     2.0432 F       
  27 Cl27          -1.5187    -0.8172     0.0641 Cl      
  28 C28            2.2317     7.8114    -8.3560 C.3     
  29 C29            5.5401     1.4999    -5.9551 C.ar    
  30 C30            5.3475     2.2055    -7.1399 C.ar    
  31 C31            1.3260     9.0082    -8.0587 C.3     
  32 F32            1.9374     9.8305    -7.1062 F       
  33 F33            1.1130     9.7353    -9.2348 F       
  34 F34            0.0994     8.5529    -7.5633 F       
  35 C35            1.1850    -2.1443     0.0131 C.3     
  36 F36            2.5045    -2.6085    -0.0113 F       
  37 F37            0.5462    -2.6151     1.1653 F       
  38 F38            0.5064    -2.6084    -1.1189 F       
  39 H39           -0.9537     1.9751     0.0584 H       
  40 H40            3.3141    -0.4828    -0.0183 H       
  41 H41            1.1775     3.2082     0.0299 H       
  42 H42            2.5243     3.8180    -0.9130 H       
  43 H43            4.2028     4.2685    -0.4638 H       
  44 H44            2.7789     5.3594    -2.5921 H       
  45 H45            2.4328     6.5911    -4.6700 H       
  46 H46            2.0464     7.3404    -6.2940 H       
  47 H47            4.5346     3.9303    -8.0731 H       
  48 H48            5.2291     1.4252    -3.8565 H       
  49 H49            3.1874     8.1661    -8.7420 H       
  50 H50            1.7554     7.1708    -9.0981 H       
  51 H51            6.0738     0.5612    -5.9752 H       
  52 H52            5.7339     1.8064    -8.0661 H       
@<TRIPOS>BOND
   1    1    2 ar
   2    1    6 ar
   3    1   39 1
   4    2    3 ar
   5    2   27 1
   6    3    4 ar
   7    3   35 1
   8    4    5 ar
   9    4   40 1
  10    5    6 ar
  11    5    7 1
  12    6   41 1
  13    7    8 1
  14    7    9 1
  15    7   23 1
  16    8   11 1
  17    9   10 1
  18    9   42 1
  19    9   43 1
  20   10   11 2
  21   10   12 1
  22   12   13 ar
  23   12   14 ar
  24   13   22 ar
  25   13   17 ar
  26   14   15 ar
  27   14   44 1
  28   15   16 ar
  29   15   45 1
  30   16   17 ar
  31   16   18 1
  32   17   21 ar
  33   18   19 2
  34   18   20 am
  35   20   28 1
  36   20   46 1
  37   21   30 ar
  38   21   47 1
  39   22   29 ar
  40   22   48 1
  41   23   24 1
  42   23   25 1
  43   23   26 1
  44   28   31 1
  45   28   49 1
  46   28   50 1
  47   29   30 ar
  48   29   51 1
  49   30   52 1
  50   31   32 1
  51   31   33 1
  52   31   34 1
  53   35   36 1
  54   35   37 1
  55   35   38 1

#	End of record

