#	Name: ASD01901427
#	Creating user name:	WinNT
#	Creation time:	15. 06. 2019 19:53

#	Modifying user name:	WinNT
#	Modification time:	15. 06. 2019 19:53

#	Program:	/corina/corina34_cracker 3.40 0067  02.08.2006

@<TRIPOS>MOLECULE
ASD01901427
  37   40    0    0    0
SMALL
NO_CHARGES


@<TRIPOS>ATOM
   1 C1            -0.0168     1.3907     0.0097 C.ar    
   2 C2             1.1749     2.0952     0.0021 C.ar    
   3 C3             2.3818     1.4161    -0.0135 C.ar    
   4 C4             2.4030     0.0334    -0.0212 C.ar    
   5 C5             1.2206    -0.6791    -0.0132 C.ar    
   6 C6             0.0021    -0.0041     0.0020 C.ar    
   7 C7            -1.2714    -0.7662     0.0106 C.2     
   8 N8            -3.1799    -1.5363    -1.1466 N.2     
   9 C9            -2.0561    -0.8622    -1.1592 C.2     
  10 C10           -1.6982    -1.3898     1.1495 C.2     
  11 N11           -2.8726    -2.0820     1.1228 N.pl3   
  12 C12           -3.6090    -2.1474    -0.0321 C.2     
  13 C13           -3.5500    -2.7948     2.0752 C.2     
  14 C14           -4.6690    -3.2734     1.4912 C.2     
  15 N15           -4.6905    -2.8721     0.2167 N.2     
  16 C16           -5.7194    -4.1187     2.1645 C.3     
  17 O17           -5.3508    -4.3404     3.5272 O.3     
  18 C18           -6.1959    -5.0889     4.2799 C.ar    
  19 C19           -5.8949    -5.3341     5.6120 C.ar    
  20 N20           -7.3016    -5.5731     3.7377 N.ar    
  21 C21           -8.1518    -6.3053     4.4325 C.ar    
  22 C22           -7.9159    -6.5946     5.7608 C.ar    
  23 C23           -6.7676    -6.1004     6.3704 C.ar    
  24 F24           -1.1947     2.0521     0.0301 F       
  25 F25           -6.5082    -6.3610     7.6704 F       
  26 F26            1.1605     3.4461     0.0095 F       
  27 H27            3.3099     1.9684    -0.0201 H       
  28 H28            3.3473    -0.4907    -0.0337 H       
  29 H29            1.2402    -1.7589    -0.0192 H       
  30 H30           -1.7293    -0.3779    -2.0676 H       
  31 H31           -1.1142    -1.3354     2.0563 H       
  32 H32           -3.2463    -2.9460     3.1005 H       
  33 H33           -6.6793    -3.6036     2.1269 H       
  34 H34           -5.8004    -5.0760     1.6496 H       
  35 H35           -4.9935    -4.9342     6.0522 H       
  36 H36           -9.0441    -6.6828     3.9552 H       
  37 H37           -8.6171    -7.1943     6.3220 H       
@<TRIPOS>BOND
   1    1    6 ar
   2    1    2 ar
   3    1   24 1
   4    2    3 ar
   5    2   26 1
   6    3    4 ar
   7    3   27 1
   8    4    5 ar
   9    4   28 1
  10    5    6 ar
  11    5   29 1
  12    6    7 1
  13    7   10 2
  14    7    9 1
  15    8    9 2
  16    8   12 1
  17    9   30 1
  18   10   11 1
  19   10   31 1
  20   11   13 1
  21   11   12 1
  22   12   15 2
  23   13   14 2
  24   13   32 1
  25   14   15 1
  26   14   16 1
  27   16   17 1
  28   16   33 1
  29   16   34 1
  30   17   18 1
  31   18   20 ar
  32   18   19 ar
  33   19   23 ar
  34   19   35 1
  35   20   21 ar
  36   21   22 ar
  37   21   36 1
  38   22   23 ar
  39   22   37 1
  40   23   25 1

#	End of record

