#	Name: ASD00844777
#	Creating user name:	WinNT
#	Creation time:	15. 06. 2019 18:50

#	Modifying user name:	WinNT
#	Modification time:	15. 06. 2019 18:50

#	Program:	/corina/corina34_cracker 3.40 0067  02.08.2006

@<TRIPOS>MOLECULE
ASD00844777
  81   86    0    0    0
SMALL
NO_CHARGES


@<TRIPOS>ATOM
   1 F1             5.6871    -2.1797    -1.9682 F       
   2 C2             0.7252     1.2381    -0.3815 C.ar    
   3 C3             0.9721    -0.1000    -0.6512 C.ar    
   4 C4             0.8518    -1.0427     0.3597 C.ar    
   5 C5             0.4865    -0.6469     1.6316 C.ar    
   6 C6             0.2405     0.6876     1.8978 C.ar    
   7 C7             0.3601     1.6289     0.8925 C.ar    
   8 C8             1.1188    -2.4973     0.0701 C.3     
   9 C9             0.7944    -3.3472     1.2801 C.2     
  10 C10            0.3074    -2.9588    -1.1422 C.3     
  11 C11           -1.1532    -2.6708    -0.9082 C.2     
  12 N12           -2.0740    -3.0909    -1.7982 N.am    
  13 O13           -1.5001    -2.0609     0.0811 O.2     
  14 C14           -3.4904    -2.7238    -1.6493 C.3     
  15 C15           -3.9838    -2.1389    -2.9770 C.3     
  16 N16           -3.6986    -3.0871    -4.0622 N.3     
  17 C17           -2.2533    -3.2964    -4.2208 C.3     
  18 C18           -1.6880    -3.9236    -2.9475 C.3     
  19 C19           -4.3078    -2.6429    -5.3230 C.3     
  20 C20           -3.8874    -3.5853    -6.4542 C.3     
  21 C21           -4.5732    -3.1537    -7.7525 C.3     
  22 N22           -6.0303    -3.1931    -7.5744 N.3     
  23 C23           -6.4624    -2.2609    -6.5253 C.3     
  24 C24           -5.8330    -2.6659    -5.1904 C.3     
  25 H25           -6.5061    -3.0046    -8.4440 H       
  26 O26           -0.2901    -3.4601     1.8113 O.2     
  27 N27            1.9334    -3.9538     1.6546 N.am    
  28 C28            2.5948    -2.7295    -0.1577 C.ar    
  29 C29            3.0088    -3.6127     0.8317 C.ar    
  30 C30            3.4840    -2.2497    -1.0927 C.ar    
  31 C31            4.8108    -2.6483    -1.0530 C.ar    
  32 C32            5.2354    -3.5288    -0.0709 C.ar    
  33 C33            4.3435    -4.0100     0.8669 C.ar    
  34 Cl34           6.8969    -4.0293    -0.0193 Cl      
  35 C35            1.7254    -6.6105     2.3424 C.ar    
  36 C36            2.7651    -7.3969     1.8825 C.ar    
  37 C37            0.4328    -7.1004     2.3355 C.ar    
  38 C38            0.1799    -8.3767     1.8688 C.ar    
  39 C39            1.2195    -9.1630     1.4085 C.ar    
  40 C40            2.5121    -8.6731     1.4153 C.ar    
  41 H41            1.0219   -10.1602     1.0438 H       
  42 H42            3.7749    -7.0141     1.8879 H       
  43 S43            2.0487    -4.9863     2.9441 S.o2    
  44 O44            3.4108    -4.9721     3.3489 O.2     
  45 O45            0.9753    -4.6604     3.8163 O.2     
  46 O46            1.3309    -0.4869    -1.9036 O.3     
  47 C47            1.3571     0.5246    -2.9126 C.3     
  48 C48            1.8649    -0.0768    -4.2246 C.3     
  49 F49            3.1187    -0.6611    -4.0152 F       
  50 F50            0.9650    -1.0508    -4.6703 F       
  51 H51            0.8225     1.9744    -1.1656 H       
  52 H52            0.3927    -1.3804     2.4188 H       
  53 H53           -0.0457     0.9950     2.8928 H       
  54 H54            0.1674     2.6705     1.1029 H       
  55 H55            0.6453    -2.4247    -2.0302 H       
  56 H56            0.4478    -4.0299    -1.2870 H       
  57 H57           -4.0741    -3.6100    -1.4002 H       
  58 H58           -3.5947    -1.9794    -0.8600 H       
  59 H59           -5.0581    -1.9635    -2.9203 H       
  60 H60           -3.4709    -1.1973    -3.1726 H       
  61 H61           -2.0726    -3.9604    -5.0661 H       
  62 H62           -1.7645    -2.3386    -4.3991 H       
  63 H63           -0.6014    -3.9751    -3.0159 H       
  64 H64           -2.0975    -4.9257    -2.8199 H       
  65 H65           -3.9762    -1.6298    -5.5507 H       
  66 H66           -2.8058    -3.5410    -6.5819 H       
  67 H67           -4.1838    -4.6048    -6.2076 H       
  68 H68           -4.2656    -2.1391    -8.0058 H       
  69 H69           -4.2872    -3.8313    -8.5570 H       
  70 H70           -6.1459    -1.2505    -6.7843 H       
  71 H71           -7.5485    -2.2900    -6.4384 H       
  72 H72           -6.1601    -3.6709    -4.9239 H       
  73 H73           -6.1415    -1.9646    -4.4150 H       
  74 H74            3.1481    -1.5639    -1.8564 H       
  75 H75            4.6814    -4.6960     1.6295 H       
  76 H76           -0.3795    -6.4861     2.6951 H       
  77 H77           -0.8299    -8.7598     1.8640 H       
  78 H78            3.3244    -9.2875     1.0561 H       
  79 H79            0.3512     0.9182    -3.0587 H       
  80 H80            2.0211     1.3311    -2.6015 H       
  81 H81            1.9511     0.7090    -4.9751 H       
@<TRIPOS>BOND
   1    1   31 1
   2    2    3 ar
   3    2    7 ar
   4    2   51 1
   5    3    4 ar
   6    3   46 1
   7    4    5 ar
   8    4    8 1
   9    5    6 ar
  10    5   52 1
  11    6    7 ar
  12    6   53 1
  13    7   54 1
  14    8    9 1
  15    8   10 1
  16    8   28 1
  17    9   26 2
  18    9   27 am
  19   10   11 1
  20   10   55 1
  21   10   56 1
  22   11   12 am
  23   11   13 2
  24   12   14 1
  25   12   18 1
  26   14   15 1
  27   14   57 1
  28   14   58 1
  29   15   16 1
  30   15   59 1
  31   15   60 1
  32   16   17 1
  33   16   19 1
  34   17   18 1
  35   17   61 1
  36   17   62 1
  37   18   63 1
  38   18   64 1
  39   19   20 1
  40   19   24 1
  41   19   65 1
  42   20   21 1
  43   20   66 1
  44   20   67 1
  45   21   22 1
  46   21   68 1
  47   21   69 1
  48   22   23 1
  49   22   25 1
  50   23   24 1
  51   23   70 1
  52   23   71 1
  53   24   72 1
  54   24   73 1
  55   27   43 am
  56   27   29 1
  57   28   29 ar
  58   28   30 ar
  59   29   33 ar
  60   30   31 ar
  61   30   74 1
  62   31   32 ar
  63   32   33 ar
  64   32   34 1
  65   33   75 1
  66   35   36 ar
  67   35   37 ar
  68   35   43 1
  69   36   42 1
  70   36   40 ar
  71   37   38 ar
  72   37   76 1
  73   38   39 ar
  74   38   77 1
  75   39   40 ar
  76   39   41 1
  77   40   78 1
  78   43   44 2
  79   43   45 2
  80   46   47 1
  81   47   48 1
  82   47   79 1
  83   47   80 1
  84   48   49 1
  85   48   50 1
  86   48   81 1

#	End of record

