#	Name: ASD01911220
#	Creating user name:	WinNT
#	Creation time:	15. 06. 2019 19:57

#	Modifying user name:	WinNT
#	Modification time:	15. 06. 2019 19:57

#	Program:	/corina/corina34_cracker 3.40 0067  02.08.2006

@<TRIPOS>MOLECULE
ASD01911220
  46   48    0    0    0
SMALL
NO_CHARGES


@<TRIPOS>ATOM
   1 C1            -0.7268    -1.7309    -2.4758 C.3     
   2 C2             0.0570    -0.4238    -2.3413 C.3     
   3 N3             0.8611    -0.4602    -1.1173 N.am    
   4 C4             2.0745    -1.0467    -1.1254 C.2     
   5 O5             2.4717    -1.6086    -2.1281 O.2     
   6 C6             2.9205    -1.0071     0.0815 C.2     
   7 N7             2.5866    -0.5391     1.2647 N.2     
   8 N8             3.5454    -0.6467     2.1110 N.pl3   
   9 C9             4.6507    -1.2203     1.5431 C.ar    
  10 C10            4.3020    -1.4878     0.2052 C.ar    
  11 C11            5.2318    -2.0820    -0.6476 C.ar    
  12 C12            6.4682    -2.3873    -0.1427 C.ar    
  13 C13            6.7555    -2.0984     1.1911 C.ar    
  14 N14            5.8610    -1.5392     1.9842 N.ar    
  15 O15            7.9811    -2.4033     1.6859 O.3     
  16 C16            8.2239    -2.0867     3.0581 C.3     
  17 C17            9.6271    -2.4942     3.4269 C.ar    
  18 C18           10.4419    -3.0760     2.4745 C.ar    
  19 C19           11.7314    -3.4473     2.8242 C.ar    
  20 C20           12.1543    -3.2183     4.1244 C.ar    
  21 C21           11.2828    -2.6317     5.0227 C.ar    
  22 N22           10.0649    -2.2865     4.6535 N.ar    
  23 C23            3.4669    -0.2105     3.5073 C.3     
  24 C24            0.3462     0.1409     0.1155 C.3     
  25 C25           -0.2984    -0.9436     0.9811 C.3     
  26 H26           -0.0310    -2.5686    -2.5229 H       
  27 H27           -1.3827    -1.8515    -1.6136 H       
  28 H28           -1.3251    -1.7038    -3.3865 H       
  29 H29            0.7129    -0.3031    -3.2035 H       
  30 H30           -0.6388     0.4139    -2.2942 H       
  31 H31            4.9841    -2.2956    -1.6769 H       
  32 H32            7.2145    -2.8484    -0.7726 H       
  33 H33            8.1053    -1.0139     3.2099 H       
  34 H34            7.5128    -2.6233     3.6861 H       
  35 H35           10.0790    -3.2398     1.4706 H       
  36 H36           12.3905    -3.9043     2.1009 H       
  37 H37           13.1520    -3.4951     4.4317 H       
  38 H38           11.6045    -2.4503     6.0376 H       
  39 H39            3.1042    -1.0322     4.1248 H       
  40 H40            4.4566     0.0919     3.8497 H       
  41 H41            2.7815     0.6333     3.5864 H       
  42 H42            1.1665     0.6038     0.6641 H       
  43 H43           -0.3979     0.8978    -0.1325 H       
  44 H44           -0.6815    -0.4964     1.8984 H       
  45 H45           -1.1186    -1.4066     0.4325 H       
  46 H46            0.4457    -1.7005     1.2291 H       
@<TRIPOS>BOND
   1    1    2 1
   2    1   26 1
   3    1   27 1
   4    1   28 1
   5    2    3 1
   6    2   29 1
   7    2   30 1
   8    3    4 am
   9    3   24 1
  10    4    5 2
  11    4    6 1
  12    6    7 2
  13    6   10 1
  14    7    8 1
  15    8    9 1
  16    8   23 1
  17    9   10 ar
  18    9   14 ar
  19   10   11 ar
  20   11   12 ar
  21   11   31 1
  22   12   13 ar
  23   12   32 1
  24   13   14 ar
  25   13   15 1
  26   15   16 1
  27   16   17 1
  28   16   33 1
  29   16   34 1
  30   17   18 ar
  31   17   22 ar
  32   18   19 ar
  33   18   35 1
  34   19   20 ar
  35   19   36 1
  36   20   21 ar
  37   20   37 1
  38   21   22 ar
  39   21   38 1
  40   23   39 1
  41   23   40 1
  42   23   41 1
  43   24   25 1
  44   24   42 1
  45   24   43 1
  46   25   44 1
  47   25   45 1
  48   25   46 1

#	End of record

