#	Name: ASD01420077
#	Creating user name:	WinNT
#	Creation time:	15. 06. 2019 19:20

#	Modifying user name:	WinNT
#	Modification time:	15. 06. 2019 19:20

#	Program:	/corina/corina34_cracker 3.40 0067  02.08.2006

@<TRIPOS>MOLECULE
ASD01420077
  56   58    0    0    0
SMALL
NO_CHARGES


@<TRIPOS>ATOM
   1 C1             0.1403     1.4341     0.6120 C.2     
   2 O2             0.2426     0.2301     0.7503 O.2     
   3 C3             1.2603     3.6118     0.0421 C.3     
   4 N4             1.2320     2.1765     0.3410 N.am    
   5 C5             2.6192     1.7039     0.2892 C.3     
   6 C6             3.4934     2.8850    -0.0482 C.ar    
   7 C7             4.8685     2.9873    -0.2175 C.ar    
   8 C8             5.4390     4.2113    -0.5315 C.ar    
   9 C9             4.6379     5.3278    -0.6755 C.ar    
  10 C10            3.2705     5.2240    -0.5067 C.ar    
  11 C11            2.6975     4.0028    -0.1930 C.ar    
  12 O12            5.6545     1.8878    -0.0750 O.3     
  13 C13            7.0597     2.0660    -0.2633 C.3     
  14 C14            7.7747     0.7281    -0.0638 C.3     
  15 N15            7.3722    -0.2051    -1.1245 N.3     
  16 C16            8.0357     0.1224    -2.3935 C.3     
  17 C17            7.6417    -1.5951    -0.7329 C.3     
  18 C18           -1.1778     2.0801     0.7348 C.ar    
  19 C19           -1.9968     1.8054     1.8408 C.ar    
  20 C20           -3.2336     2.4171     1.9486 C.ar    
  21 C21           -3.6606     3.2980     0.9655 C.ar    
  22 C22           -2.8497     3.5713    -0.1316 C.ar    
  23 C23           -1.6156     2.9739    -0.2472 C.ar    
  24 C24           -3.3223     4.5297    -1.1943 C.3     
  25 C25           -2.3446     5.7023    -1.2949 C.3     
  26 C26           -3.3904     3.8055    -2.5403 C.3     
  27 O27           -4.8744     3.8952     1.0742 O.3     
  28 O28           -1.5779     0.9431     2.8006 O.3     
  29 H29            0.6712     3.8147    -0.8522 H       
  30 H30            0.8581     4.1728     0.8857 H       
  31 H31            2.9069     1.2961     1.2582 H       
  32 H32            2.7201     0.9379    -0.4797 H       
  33 H33            6.5079     4.2920    -0.6631 H       
  34 H34            5.0808     6.2820    -0.9197 H       
  35 H35            2.6464     6.0982    -0.6193 H       
  36 H36            7.2476     2.4314    -1.2729 H       
  37 H37            7.4344     2.7897     0.4606 H       
  38 H38            8.8529     0.8826    -0.1057 H       
  39 H39            7.5046     0.3130     0.9071 H       
  40 H40            9.1163     0.0605    -2.2651 H       
  41 H41            7.7200    -0.5839    -3.1614 H       
  42 H42            7.7631     1.1336    -2.6957 H       
  43 H43            7.0173    -1.8597     0.1204 H       
  44 H44            7.4157    -2.2582    -1.5680 H       
  45 H45            8.6921    -1.6987    -0.4606 H       
  46 H46           -3.8668     2.2083     2.7982 H       
  47 H47           -0.9873     3.1921    -1.0980 H       
  48 H48           -4.3121     4.9033    -0.9323 H       
  49 H49           -1.3548     5.3286    -1.5569 H       
  50 H50           -2.6865     6.3954    -2.0635 H       
  51 H51           -2.2962     6.2182    -0.3359 H       
  52 H52           -3.7322     4.4986    -3.3089 H       
  53 H53           -2.4005     3.4318    -2.8023 H       
  54 H54           -4.0869     2.9701    -2.4687 H       
  55 H55           -4.8567     4.7390     1.5463 H       
  56 H56           -1.0862     1.3633     3.5194 H       
@<TRIPOS>BOND
   1    1    2 2
   2    1    4 am
   3    1   18 1
   4    3    4 1
   5    3   11 1
   6    3   29 1
   7    3   30 1
   8    4    5 1
   9    5    6 1
  10    5   31 1
  11    5   32 1
  12    6    7 ar
  13    6   11 ar
  14    7    8 ar
  15    7   12 1
  16    8    9 ar
  17    8   33 1
  18    9   10 ar
  19    9   34 1
  20   10   11 ar
  21   10   35 1
  22   12   13 1
  23   13   14 1
  24   13   36 1
  25   13   37 1
  26   14   15 1
  27   14   38 1
  28   14   39 1
  29   15   16 1
  30   15   17 1
  31   16   40 1
  32   16   41 1
  33   16   42 1
  34   17   43 1
  35   17   44 1
  36   17   45 1
  37   18   19 ar
  38   18   23 ar
  39   19   20 ar
  40   19   28 1
  41   20   21 ar
  42   20   46 1
  43   21   22 ar
  44   21   27 1
  45   22   23 ar
  46   22   24 1
  47   23   47 1
  48   24   25 1
  49   24   26 1
  50   24   48 1
  51   25   49 1
  52   25   50 1
  53   25   51 1
  54   26   52 1
  55   26   53 1
  56   26   54 1
  57   27   55 1
  58   28   56 1

#	End of record

