#	Name: ASD01884299
#	Creating user name:	WinNT
#	Creation time:	15. 06. 2019 19:47

#	Modifying user name:	WinNT
#	Modification time:	15. 06. 2019 19:47

#	Program:	/corina/corina34_cracker 3.40 0067  02.08.2006

@<TRIPOS>MOLECULE
ASD01884299
  45   47    0    0    0
SMALL
NO_CHARGES


@<TRIPOS>ATOM
   1 C1             0.1808     0.7728    -0.3187 C.ar    
   2 C2             0.3435    -0.4724     0.2917 C.ar    
   3 C3             1.5943    -0.8411     0.7975 C.ar    
   4 C4             2.6618     0.0274     0.6911 C.ar    
   5 C5             2.4935     1.2648     0.0828 C.ar    
   6 C6             1.2501     1.6331    -0.4209 C.ar    
   7 O7             3.5447     2.1166    -0.0204 O.3     
   8 B8            -0.8745    -1.4559     0.4103 Du      
   9 C9             4.3413     2.0160    -1.1148 C.ar    
  10 C10            4.0244     1.1409    -2.1507 C.ar    
  11 C11            4.8597     1.0682    -3.2467 C.ar    
  12 N12            5.9458     1.8138    -3.3197 N.ar    
  13 C13            6.2796     2.6546    -2.3587 C.ar    
  14 C14            5.4936     2.7898    -1.2331 C.ar    
  15 C15            7.5319     3.4817    -2.4954 C.3     
  16 F16            1.7572    -2.0445     1.3894 F       
  17 O17           -0.8885    -2.7632     1.0012 O.3     
  18 O18           -2.2188    -1.2417    -0.0428 O.3     
  19 C19           -2.6296    -2.5155    -0.5827 C.3     
  20 C20           -1.7250    -3.5501     0.1273 C.3     
  21 C21           -0.8709    -4.3021    -0.8954 C.3     
  22 C22           -2.5728    -4.5309     0.9398 C.3     
  23 C23           -4.1004    -2.7831    -0.2571 C.3     
  24 C24           -2.4020    -2.5519    -2.0952 C.3     
  25 H25           -0.7825     1.0588    -0.7143 H       
  26 H26            3.6284    -0.2552     1.0814 H       
  27 H27            1.1236     2.5963    -0.8928 H       
  28 H28            3.1373     0.5273    -2.0969 H       
  29 H29            4.6217     0.3922    -4.0547 H       
  30 H30            5.7724     3.4797    -0.4504 H       
  31 H31            7.2934     4.4232    -2.9900 H       
  32 H32            7.9431     3.6847    -1.5066 H       
  33 H33            8.2652     2.9353    -3.0886 H       
  34 H34           -0.2433    -3.5935    -1.4359 H       
  35 H35           -0.2402    -5.0262    -0.3797 H       
  36 H36           -1.5207    -4.8223    -1.5991 H       
  37 H37           -3.2585    -5.0560     0.2747 H       
  38 H38           -1.9213    -5.2523     1.4330 H       
  39 H39           -3.1427    -3.9833     1.6904 H       
  40 H40           -4.7199    -2.0115    -0.7142 H       
  41 H41           -4.3876    -3.7589    -0.6488 H       
  42 H42           -4.2417    -2.7695     0.8236 H       
  43 H43           -1.3476    -2.3756    -2.3083 H       
  44 H44           -2.6927    -3.5283    -2.4830 H       
  45 H45           -3.0034    -1.7779    -2.5719 H       
@<TRIPOS>BOND
   1    1    2 ar
   2    1    6 ar
   3    1   25 1
   4    2    3 ar
   5    2    8 1
   6    3    4 ar
   7    3   16 1
   8    4    5 ar
   9    4   26 1
  10    5    6 ar
  11    5    7 1
  12    6   27 1
  13    7    9 1
  14    8   17 1
  15    8   18 1
  16    9   10 ar
  17    9   14 ar
  18   10   11 ar
  19   10   28 1
  20   11   12 ar
  21   11   29 1
  22   12   13 ar
  23   13   14 ar
  24   13   15 1
  25   14   30 1
  26   15   31 1
  27   15   32 1
  28   15   33 1
  29   17   20 1
  30   18   19 1
  31   19   20 1
  32   19   23 1
  33   19   24 1
  34   20   21 1
  35   20   22 1
  36   21   34 1
  37   21   35 1
  38   21   36 1
  39   22   37 1
  40   22   38 1
  41   22   39 1
  42   23   40 1
  43   23   41 1
  44   23   42 1
  45   24   43 1
  46   24   44 1
  47   24   45 1

#	End of record

