#	Name: ASD07930230
#	Creating user name:	WinNT
#	Creation time:	15. 06. 2019 21:12

#	Modifying user name:	WinNT
#	Modification time:	15. 06. 2019 21:12

#	Program:	/corina/corina34_cracker 3.40 0067  02.08.2006

@<TRIPOS>MOLECULE
ASD07930230
  56   59    0    0    0
SMALL
NO_CHARGES


@<TRIPOS>ATOM
   1 C1            -0.0165     1.3638     0.0095 C.2     
   2 C2             0.0021    -0.0041     0.0020 C.2     
   3 C3             1.2948    -0.6930    -0.0137 C.2     
   4 N4             2.4269     0.0320    -0.0184 N.am    
   5 C5             2.3819     1.4078    -0.0126 C.2     
   6 C6             1.1929     2.0698     0.0018 C.2     
   7 C7             3.7400    -0.6270    -0.0278 C.3     
   8 C8             4.6599     0.1585    -0.9744 C.3     
   9 N9             4.7714     1.5377    -0.4785 N.am    
  10 C10            3.6569     2.1587    -0.0238 C.2     
  11 C11            6.0638     2.2277    -0.4763 C.3     
  12 O12            3.7031     3.3090     0.3671 O.2     
  13 O13            1.3435    -1.9113    -0.0219 O.2     
  14 N14           -1.1914    -0.7315     0.0096 N.pl3   
  15 C15           -1.6504    -1.5415    -0.9805 C.2     
  16 N16           -2.7956    -2.0446    -0.6082 N.2     
  17 C17           -3.1078    -1.5843     0.6125 C.2     
  18 C18           -2.1178    -0.7676     1.0201 C.2     
  19 C19           -4.3493    -1.9268     1.3951 C.3     
  20 C20            7.5994     3.6871    -1.8007 C.3     
  21 O21            7.7732     4.3772    -3.0399 O.3     
  22 C22            8.9292     5.0734    -3.2017 C.ar    
  23 C23            9.1634     5.7666    -4.3803 C.ar    
  24 C24            9.8741     5.0964    -2.1862 C.ar    
  25 C25           11.0485     5.8045    -2.3526 C.ar    
  26 C26           11.2827     6.4906    -3.5311 C.ar    
  27 C27           10.3390     6.4736    -4.5429 C.ar    
  28 C28           10.5968     7.2213    -5.8257 C.3     
  29 Cl29          12.7590     7.3803    -3.7375 Cl      
  30 C30            6.2498     2.9665    -1.8031 C.3     
  31 C31           12.0750     5.8302    -1.2495 C.3     
  32 H32           -0.9567     1.8952     0.0169 H       
  33 H33            1.1819     3.1497     0.0071 H       
  34 H34            4.1596    -0.6262     0.9782 H       
  35 H35            3.6350    -1.6521    -0.3830 H       
  36 H36            5.6465    -0.3045    -0.9940 H       
  37 H37            4.2345     0.1634    -1.9779 H       
  38 H38            6.0920     2.9435     0.3453 H       
  39 H39            6.8645     1.4989    -0.3509 H       
  40 H40           -1.1514    -1.7356    -1.9184 H       
  41 H41           -2.0667    -0.2372     1.9595 H       
  42 H42           -4.1600    -2.8068     2.0099 H       
  43 H43           -4.6181    -1.0869     2.0358 H       
  44 H44           -5.1676    -2.1343     0.7057 H       
  45 H45            8.4002     2.9584    -1.6753 H       
  46 H46            7.6277     4.4030    -0.9791 H       
  47 H47            8.4272     5.7533    -5.1704 H       
  48 H48            9.6914     4.5613    -1.2661 H       
  49 H49           11.1018     6.5644    -6.5339 H       
  50 H50            9.6490     7.5528    -6.2498 H       
  51 H51           11.2261     8.0875    -5.6212 H       
  52 H52            6.2215     2.2507    -2.6246 H       
  53 H53            5.4490     3.6953    -1.9285 H       
  54 H54           12.7700     5.0009    -1.3806 H       
  55 H55           12.6224     6.7721    -1.2845 H       
  56 H56           11.5749     5.7363    -0.2856 H       
@<TRIPOS>BOND
   1    1    2 2
   2    1    6 1
   3    1   32 1
   4    2    3 1
   5    2   14 1
   6    3    4 am
   7    3   13 2
   8    4    5 1
   9    4    7 1
  10    5    6 2
  11    5   10 1
  12    6   33 1
  13    7    8 1
  14    7   34 1
  15    7   35 1
  16    8    9 1
  17    8   36 1
  18    8   37 1
  19    9   10 am
  20    9   11 1
  21   10   12 2
  22   11   30 1
  23   11   38 1
  24   11   39 1
  25   14   15 1
  26   14   18 1
  27   15   16 2
  28   15   40 1
  29   16   17 1
  30   17   18 2
  31   17   19 1
  32   18   41 1
  33   19   42 1
  34   19   43 1
  35   19   44 1
  36   20   21 1
  37   20   30 1
  38   20   45 1
  39   20   46 1
  40   21   22 1
  41   22   23 ar
  42   22   24 ar
  43   23   27 ar
  44   23   47 1
  45   24   25 ar
  46   24   48 1
  47   25   26 ar
  48   25   31 1
  49   26   27 ar
  50   26   29 1
  51   27   28 1
  52   28   49 1
  53   28   50 1
  54   28   51 1
  55   30   52 1
  56   30   53 1
  57   31   54 1
  58   31   55 1
  59   31   56 1

#	End of record

