#	Name: ASD02408458
#	Creating user name:	WinNT
#	Creation time:	15. 06. 2019 20:21

#	Modifying user name:	WinNT
#	Modification time:	15. 06. 2019 20:21

#	Program:	/corina/corina34_cracker 3.40 0067  02.08.2006

@<TRIPOS>MOLECULE
ASD02408458
  47   48    0    0    0
SMALL
NO_CHARGES


@<TRIPOS>ATOM
   1 C1            -0.0170     1.3996     0.0097 C.2     
   2 C2             0.0021    -0.0041     0.0020 C.2     
   3 N3            -1.2942    -0.4096     0.0118 N.pl3   
   4 N4            -2.1111     0.7280     0.0254 N.2     
   5 C5            -1.3664     1.7991     0.0192 C.2     
   6 C6            -1.7585    -1.7991     0.0078 C.3     
   7 C7            -2.5924    -2.0617     1.2634 C.3     
   8 C8            -2.9726    -3.5425     1.3226 C.3     
   9 C9            -1.7499    -1.9058    -2.4883 C.3     
  10 C10           -2.6159    -2.0468    -1.2349 C.3     
  11 C11            1.2638     2.1063     0.0013 C.2     
  12 N12            2.3912     1.3572    -0.0135 N.am    
  13 N13            1.1828    -0.6424    -0.0123 N.2     
  14 O14            1.3139     3.3236     0.0070 O.2     
  15 C15            2.3124     0.0027    -0.0200 C.2     
  16 C16            3.5931    -0.7914    -0.0370 C.3     
  17 C17            3.2664    -2.2861    -0.0418 C.3     
  18 C18            4.5667    -3.0923    -0.0591 C.3     
  19 C19            4.2449    -4.5645    -0.0638 C.2     
  20 O20            5.2372    -5.4684    -0.0786 O.3     
  21 C21            4.8533    -6.8687    -0.0823 C.3     
  22 C22            6.1096    -7.7418    -0.0995 C.3     
  23 O23            3.0937    -4.9313    -0.0544 O.2     
  24 H24           -1.7241     2.8181     0.0267 H       
  25 H25           -0.8990    -2.4693    -0.0042 H       
  26 H26           -2.0105    -1.8004     2.1473 H       
  27 H27           -3.4975    -1.4552     1.2319 H       
  28 H28           -2.0675    -4.1491     1.3541 H       
  29 H29           -3.5667    -3.7296     2.2171 H       
  30 H30           -3.5545    -3.8038     0.4387 H       
  31 H31           -2.3607    -2.0823    -3.3737 H       
  32 H32           -1.3319    -0.9000    -2.5299 H       
  33 H33           -0.9401    -2.6347    -2.4544 H       
  34 H34           -3.0339    -3.0526    -1.1933 H       
  35 H35           -3.4256    -1.3179    -1.2689 H       
  36 H36            3.2590     1.7906    -0.0198 H       
  37 H37            4.1638    -0.5413    -0.9314 H       
  38 H38            4.1815    -0.5509     0.8485 H       
  39 H39            2.6957    -2.5362     0.8525 H       
  40 H40            2.6780    -2.5266    -0.9273 H       
  41 H41            5.1374    -2.8422    -0.9535 H       
  42 H42            5.1551    -2.8518     0.8264 H       
  43 H43            4.2706    -7.0881     0.8123 H       
  44 H44            4.2529    -7.0785    -0.9675 H       
  45 H45            5.8214    -8.7930    -0.1023 H       
  46 H46            6.6923    -7.5224    -0.9942 H       
  47 H47            6.7100    -7.5320     0.7857 H       
@<TRIPOS>BOND
   1    1    2 2
   2    1   11 1
   3    1    5 1
   4    2    3 1
   5    2   13 1
   6    3    4 1
   7    3    6 1
   8    4    5 2
   9    5   24 1
  10    6    7 1
  11    6   10 1
  12    6   25 1
  13    7    8 1
  14    7   26 1
  15    7   27 1
  16    8   28 1
  17    8   29 1
  18    8   30 1
  19    9   10 1
  20    9   31 1
  21    9   32 1
  22    9   33 1
  23   10   34 1
  24   10   35 1
  25   11   12 am
  26   11   14 2
  27   12   15 1
  28   12   36 1
  29   13   15 2
  30   15   16 1
  31   16   17 1
  32   16   37 1
  33   16   38 1
  34   17   18 1
  35   17   39 1
  36   17   40 1
  37   18   19 1
  38   18   41 1
  39   18   42 1
  40   19   20 1
  41   19   23 2
  42   20   21 1
  43   21   22 1
  44   21   43 1
  45   21   44 1
  46   22   45 1
  47   22   46 1
  48   22   47 1

#	End of record

