#	Name: ASD01708035
#	Creating user name:	WinNT
#	Creation time:	15. 06. 2019 19:22

#	Modifying user name:	WinNT
#	Modification time:	15. 06. 2019 19:22

#	Program:	/corina/corina34_cracker 3.40 0067  02.08.2006

@<TRIPOS>MOLECULE
ASD01708035
  63   67    0    0    0
SMALL
NO_CHARGES


@<TRIPOS>ATOM
   1 C1            -0.0816     1.3292    -0.0383 C.ar    
   2 C2            -0.0382    -0.0535    -0.1499 C.ar    
   3 C3             1.0970     2.0348     0.1316 C.ar    
   4 N4             2.2638     1.4270     0.1901 N.ar    
   5 C5             2.3726     0.1072     0.0898 C.ar    
   6 C6             1.2197    -0.6824    -0.0842 C.ar    
   7 C7             3.8409    -3.2438    -0.0509 C.2     
   8 N8             5.1617    -3.1338    -0.2960 N.am    
   9 O9             3.3492    -4.3378     0.1533 O.2     
  10 C10            6.0613    -4.2937    -0.1809 C.3     
  11 C11            5.7599    -1.8552    -0.6939 C.3     
  12 C12            6.7208    -2.0769    -1.8358 C.ar    
  13 C13            7.1229    -3.3362    -2.2254 C.ar    
  14 C14            6.6250    -4.5895    -1.5697 C.3     
  15 C15            7.2023    -0.9548    -2.4997 C.ar    
  16 C16            8.0890    -1.0821    -3.5467 C.ar    
  17 C17            8.5087    -2.3550    -3.9433 C.ar    
  18 C18            8.0198    -3.4771    -3.2761 C.ar    
  19 Cl19           8.5364    -5.0617    -3.7618 Cl      
  20 Cl20           8.6803     0.3285    -4.3677 Cl      
  21 C21            9.4624    -2.5099    -5.0604 C.2     
  22 N22            9.0069    -2.6398    -6.3222 N.am    
  23 O23           10.6582    -2.5202    -4.8417 O.2     
  24 C24            9.9529    -2.7934    -7.4302 C.3     
  25 C25           10.4131    -1.4341    -7.8900 C.2     
  26 O26           11.2887    -1.3287    -8.9019 O.3     
  27 O27            9.9939    -0.4390    -7.3478 O.2     
  28 C28            9.2669    -3.5188    -8.5896 C.3     
  29 C29            8.9165    -4.9222    -8.1671 C.2     
  30 N30            3.4479    -0.7444     0.1200 N.pl3   
  31 C31            2.9952    -2.0429    -0.0305 C.2     
  32 C32            1.6414    -2.0289    -0.1566 C.2     
  33 O33           -1.1729    -0.7768    -0.3167 O.3     
  34 O34            9.7030    -6.0025    -8.3016 O.3     
  35 C35            7.7651    -5.3045    -7.5861 C.2     
  36 C36            7.8615    -6.6972    -7.3629 C.2     
  37 C37            9.0676    -7.0821    -7.8174 C.2     
  38 S38            9.7054    -8.7243    -7.7839 S.o2    
  39 C39            9.1755    -9.4480    -9.3606 C.3     
  40 O40           11.1158    -8.5521    -7.7633 O.2     
  41 O41            9.0269    -9.3417    -6.6987 O.2     
  42 H42           -1.0262     1.8503    -0.0880 H       
  43 H43            1.0588     3.1106     0.2181 H       
  44 H44            6.8754    -4.0624     0.5060 H       
  45 H45            5.5048    -5.1574     0.1830 H       
  46 H46            4.9736    -1.1695    -1.0095 H       
  47 H47            6.2958    -1.4264     0.1529 H       
  48 H48            7.4499    -5.2953    -1.4727 H       
  49 H49            5.8458    -5.0330    -2.1897 H       
  50 H50            6.8774     0.0280    -2.1918 H       
  51 H51            8.0528    -2.6316    -6.4967 H       
  52 H52           10.8127    -3.3742    -7.0961 H       
  53 H53           11.5544    -0.4359    -9.1614 H       
  54 H54            8.3577    -2.9846    -8.8653 H       
  55 H55            9.9410    -3.5546    -9.4455 H       
  56 H56            4.3746    -0.4792     0.2287 H       
  57 H57            1.0040    -2.8908    -0.2879 H       
  58 H58           -1.4200    -0.9133    -1.2416 H       
  59 H59            6.9278    -4.6692    -7.3372 H       
  60 H60            7.1121    -7.3300    -6.9109 H       
  61 H61            9.5901    -8.8672   -10.1845 H       
  62 H62            9.5309   -10.4764    -9.4260 H       
  63 H63            8.0871    -9.4353    -9.4186 H       
@<TRIPOS>BOND
   1    1    2 ar
   2    1    3 ar
   3    1   42 1
   4    2   33 1
   5    2    6 ar
   6    3    4 ar
   7    3   43 1
   8    4    5 ar
   9    5    6 ar
  10    5   30 1
  11    6   32 1
  12    7    8 am
  13    7    9 2
  14    7   31 1
  15    8   10 1
  16    8   11 1
  17   10   14 1
  18   10   44 1
  19   10   45 1
  20   11   12 1
  21   11   46 1
  22   11   47 1
  23   12   13 ar
  24   12   15 ar
  25   13   14 1
  26   13   18 ar
  27   14   48 1
  28   14   49 1
  29   15   16 ar
  30   15   50 1
  31   16   17 ar
  32   16   20 1
  33   17   18 ar
  34   17   21 1
  35   18   19 1
  36   21   22 am
  37   21   23 2
  38   22   24 1
  39   22   51 1
  40   24   25 1
  41   24   28 1
  42   24   52 1
  43   25   26 1
  44   25   27 2
  45   26   53 1
  46   28   29 1
  47   28   54 1
  48   28   55 1
  49   29   34 1
  50   29   35 2
  51   30   31 1
  52   30   56 1
  53   31   32 2
  54   32   57 1
  55   33   58 1
  56   34   37 1
  57   35   36 1
  58   35   59 1
  59   36   37 2
  60   36   60 1
  61   37   38 1
  62   38   39 1
  63   38   40 2
  64   38   41 2
  65   39   61 1
  66   39   62 1
  67   39   63 1

#	End of record

