#	Name: ASD00842299
#	Creating user name:	WinNT
#	Creation time:	15. 06. 2019 18:44

#	Modifying user name:	WinNT
#	Modification time:	15. 06. 2019 18:44

#	Program:	/corina/corina34_cracker 3.40 0067  02.08.2006

@<TRIPOS>MOLECULE
ASD00842299
  95  100    0    0    0
SMALL
NO_CHARGES


@<TRIPOS>ATOM
   1 F1             6.0163    -1.7140    -2.1458 F       
   2 C2             0.9002     1.5156    -0.6779 C.ar    
   3 C3             1.2287     0.1764    -0.8278 C.ar    
   4 C4             1.2049    -0.6687     0.2724 C.ar    
   5 C5             0.8542    -0.1747     1.5137 C.ar    
   6 C6             0.5267     1.1608     1.6604 C.ar    
   7 C7             0.5501     2.0049     0.5659 C.ar    
   8 C8             1.5607    -2.1244     0.1131 C.3     
   9 C9             1.3409    -2.8694     1.4125 C.2     
  10 C10            0.7386    -2.7557    -1.0123 C.3     
  11 C11           -0.7278    -2.5216    -0.7553 C.2     
  12 N12           -1.6500    -3.0527    -1.5823 N.am    
  13 O13           -1.0780    -1.8553     0.1957 O.2     
  14 C14           -3.0753    -2.7379    -1.4149 C.3     
  15 C15           -3.8613    -4.0489    -1.3133 C.3     
  16 C16           -3.5491    -4.9218    -2.5310 C.3     
  17 C17           -2.0555    -5.2545    -2.5529 C.3     
  18 C18           -1.2485    -3.9527    -2.6720 C.3     
  19 C19           -4.3588    -6.2174    -2.4504 C.3     
  20 C20           -5.8537    -5.8863    -2.4301 C.3     
  21 C21           -6.6592    -7.1874    -2.4110 C.3     
  22 N22           -6.3323    -7.9845    -3.6001 N.3     
  23 C23           -4.9113    -8.3547    -3.6170 C.3     
  24 C24           -4.0536    -7.0885    -3.6722 C.3     
  25 C25           -7.1876    -9.1757    -3.6868 C.3     
  26 O26            0.2873    -2.9990     1.9992 O.2     
  27 N27            2.5322    -3.3604     1.7936 N.am    
  28 C28            3.0398    -2.2816    -0.1555 C.ar    
  29 C29            3.5502    -3.0334     0.8954 C.ar    
  30 C30            3.8583    -1.8399    -1.1707 C.ar    
  31 C31            5.2097    -2.1449    -1.1515 C.ar    
  32 C32            5.7311    -2.8947    -0.1079 C.ar    
  33 C33            4.9094    -3.3377     0.9106 C.ar    
  34 F34            7.0486    -3.1933    -0.0872 F       
  35 C35            2.5339    -5.9438     2.7425 C.ar    
  36 C36            1.2873    -6.3906     2.3296 C.ar    
  37 C37            3.5945    -6.8265     2.8125 C.ar    
  38 C38            3.4142    -8.1539     2.4711 C.ar    
  39 C39            2.1725    -8.6019     2.0591 C.ar    
  40 C40            1.1089    -7.7235     1.9879 C.ar    
  41 H41            2.0342    -9.6394     1.7929 H       
  42 O42            0.2424    -5.5244     2.2604 O.3     
  43 C43           -1.0120    -6.0544     1.8270 C.3     
  44 C44           -2.0593    -4.9391     1.8127 C.3     
  45 C45           -6.9958    -9.8431    -5.0502 C.3     
  46 O46            1.5729    -0.3074    -2.0502 O.3     
  47 C47            1.9918    -0.0932    -4.4207 C.3     
  48 C48            1.4673     0.5908    -3.1566 C.3     
  49 S49            2.7663    -4.2504     3.1703 S.o2    
  50 O50            4.1382    -4.1075     3.5121 O.2     
  51 O51            1.7060    -3.9104     4.0531 O.2     
  52 H52            0.9224     2.1764    -1.5319 H       
  53 H53            0.8355    -0.8321     2.3704 H       
  54 H54            0.2521     1.5450     2.6317 H       
  55 H55            0.2939     3.0475     0.6830 H       
  56 H56            1.0175    -2.3031    -1.9638 H       
  57 H57            0.9346    -3.8273    -1.0483 H       
  58 H58           -3.2165    -2.1557    -0.5043 H       
  59 H59           -3.4268    -2.1668    -2.2743 H       
  60 H60           -3.5730    -4.5764    -0.4041 H       
  61 H61           -4.9291    -3.8317    -1.2855 H       
  62 H62           -3.8147    -4.3838    -3.4411 H       
  63 H63           -1.7842    -5.7706    -1.6320 H       
  64 H64           -1.8380    -5.8954    -3.4074 H       
  65 H65           -1.4522    -3.4833    -3.6345 H       
  66 H66           -0.1844    -4.1735    -2.5887 H       
  67 H67           -4.0930    -6.7572    -1.5415 H       
  68 H68           -6.0849    -5.3020    -1.5395 H       
  69 H69           -6.1112    -5.3119    -3.3200 H       
  70 H70           -6.4113    -7.7548    -1.5139 H       
  71 H71           -7.7242    -6.9552    -2.4109 H       
  72 H72           -4.6716    -8.9166    -2.7143 H       
  73 H73           -4.7068    -8.9703    -4.4929 H       
  74 H74           -4.2828    -6.5330    -4.5816 H       
  75 H75           -2.9987    -7.3630    -3.6690 H       
  76 H76           -6.9155    -9.8766    -2.8977 H       
  77 H77           -8.2310    -8.8831    -3.5691 H       
  78 H78            3.4473    -1.2566    -1.9814 H       
  79 H79            5.3220    -3.9209     1.7206 H       
  80 H80            4.5653    -6.4791     3.1339 H       
  81 H81            4.2447    -8.8422     2.5258 H       
  82 H82            0.1391    -8.0740     1.6668 H       
  83 H83           -0.9054    -6.4656     0.8232 H       
  84 H84           -1.3293    -6.8420     2.5104 H       
  85 H85           -2.1659    -4.5280     2.8166 H       
  86 H86           -1.7420    -4.1515     1.1293 H       
  87 H87           -3.0160    -5.3434     1.4822 H       
  88 H88           -7.2679    -9.1421    -5.8393 H       
  89 H89           -5.9525   -10.1356    -5.1679 H       
  90 H90           -7.6305   -10.7269    -5.1145 H       
  91 H91            1.3487    -0.9371    -4.6706 H       
  92 H92            1.9930     0.6194    -5.2456 H       
  93 H93            3.0072    -0.4492    -4.2466 H       
  94 H94            0.4232     0.8689    -3.3005 H       
  95 H95            2.0572     1.4852    -2.9561 H       
@<TRIPOS>BOND
   1    1   31 1
   2    2    3 ar
   3    2    7 ar
   4    2   52 1
   5    3    4 ar
   6    3   46 1
   7    4    5 ar
   8    4    8 1
   9    5    6 ar
  10    5   53 1
  11    6    7 ar
  12    6   54 1
  13    7   55 1
  14    8    9 1
  15    8   10 1
  16    8   28 1
  17    9   26 2
  18    9   27 am
  19   10   11 1
  20   10   56 1
  21   10   57 1
  22   11   12 am
  23   11   13 2
  24   12   14 1
  25   12   18 1
  26   14   15 1
  27   14   58 1
  28   14   59 1
  29   15   16 1
  30   15   60 1
  31   15   61 1
  32   16   17 1
  33   16   19 1
  34   16   62 1
  35   17   18 1
  36   17   63 1
  37   17   64 1
  38   18   65 1
  39   18   66 1
  40   19   20 1
  41   19   24 1
  42   19   67 1
  43   20   21 1
  44   20   68 1
  45   20   69 1
  46   21   22 1
  47   21   70 1
  48   21   71 1
  49   22   23 1
  50   22   25 1
  51   23   24 1
  52   23   72 1
  53   23   73 1
  54   24   74 1
  55   24   75 1
  56   25   45 1
  57   25   76 1
  58   25   77 1
  59   27   49 am
  60   27   29 1
  61   28   29 ar
  62   28   30 ar
  63   29   33 ar
  64   30   31 ar
  65   30   78 1
  66   31   32 ar
  67   32   33 ar
  68   32   34 1
  69   33   79 1
  70   35   36 ar
  71   35   37 ar
  72   35   49 1
  73   36   42 1
  74   36   40 ar
  75   37   38 ar
  76   37   80 1
  77   38   39 ar
  78   38   81 1
  79   39   40 ar
  80   39   41 1
  81   40   82 1
  82   42   43 1
  83   43   44 1
  84   43   83 1
  85   43   84 1
  86   44   85 1
  87   44   86 1
  88   44   87 1
  89   45   88 1
  90   45   89 1
  91   45   90 1
  92   46   48 1
  93   47   48 1
  94   47   91 1
  95   47   92 1
  96   47   93 1
  97   48   94 1
  98   48   95 1
  99   49   50 2
 100   49   51 2

#	End of record

