#	Name: ASD03330981
#	Creating user name:	WinNT
#	Creation time:	15. 06. 2019 20:38

#	Modifying user name:	WinNT
#	Modification time:	15. 06. 2019 20:38

#	Program:	/corina/corina34_cracker 3.40 0067  02.08.2006

@<TRIPOS>MOLECULE
ASD03330981
  61   62    0    0    0
SMALL
NO_CHARGES


@<TRIPOS>ATOM
   1 C1             0.3635     1.5756    -0.2061 C.3     
   2 C2             0.2864     0.0712    -0.1615 C.2     
   3 N3             0.2672    -0.6828     0.9625 N.pl3   
   4 C4             0.1942    -1.9837     0.5843 C.2     
   5 C5             0.1685    -2.0060    -0.7722 C.2     
   6 N6             0.2216    -0.7157    -1.1994 N.2     
   7 C7             0.0920    -3.2053    -1.6243 C.2     
   8 N8             0.0741    -3.0787    -2.9660 N.am    
   9 C9             1.8299     2.0101    -0.2466 C.3     
  10 O10            0.0450    -4.3097    -1.1170 O.2     
  11 C11           -0.0020    -4.2714    -3.8133 C.3     
  12 C12           -1.4652    -4.6862    -3.9798 C.3     
  13 C13            0.5904    -3.9659    -5.1649 C.2     
  14 C14           -2.2726    -3.5034    -4.5182 C.3     
  15 C15            0.3136    -0.2269     2.3545 C.3     
  16 C16           -0.1623    -1.3659     3.2627 C.3     
  17 C17            0.5997    -2.6495     2.9205 C.3     
  18 C18            0.1534    -3.1487     1.5395 C.3     
  19 O19            0.5760    -2.8304    -5.5907 O.2     
  20 C20            1.9082     3.5374    -0.2919 C.3     
  21 C21            1.0855     4.0555    -1.4733 C.3     
  22 O22            1.3875     4.0773     0.9244 O.3     
  23 N23            1.1363    -4.9546    -5.9005 N.am    
  24 C24            1.8061    -4.6423    -7.1654 C.3     
  25 C25            3.3668     3.9686    -0.4580 C.3     
  26 C26           -1.5553    -5.8550    -4.9631 C.3     
  27 C27           -2.0310    -5.1152    -2.6245 C.3     
  28 H28           -0.1481     1.9393    -1.0972 H       
  29 H29           -0.1139     1.9903     0.6817 H       
  30 H30            0.1116    -2.1979    -3.3705 H       
  31 H31            2.3415     1.6463     0.6445 H       
  32 H32            2.3073     1.5953    -1.1344 H       
  33 H33            0.5554    -5.0841    -3.3476 H       
  34 H34           -1.8695    -3.1978    -5.4837 H       
  35 H35           -3.3150    -3.7989    -4.6368 H       
  36 H36           -2.2084    -2.6708    -3.8177 H       
  37 H37            1.3360     0.0460     2.6158 H       
  38 H38           -0.3402     0.6365     2.4782 H       
  39 H39            0.0221    -1.1011     4.3038 H       
  40 H40           -1.2300    -1.5270     3.1134 H       
  41 H41            1.6701    -2.4444     2.9052 H       
  42 H42            0.3848    -3.4112     3.6700 H       
  43 H43           -0.8622    -3.5397     1.6000 H       
  44 H44            0.8296    -3.9310     1.1948 H       
  45 H45            0.0464     3.7483    -1.3549 H       
  46 H46            1.1413     5.1436    -1.5055 H       
  47 H47            1.4827     3.6436    -2.4010 H       
  48 H48            1.4059     5.0433     0.9656 H       
  49 H49            1.0856    -5.8730    -5.5924 H       
  50 H50            1.0971    -4.1692    -7.8448 H       
  51 H51            2.6381    -3.9634    -6.9780 H       
  52 H52            2.1815    -5.5618    -7.6144 H       
  53 H53            3.7640     3.5568    -1.3858 H       
  54 H54            3.4225     5.0567    -0.4903 H       
  55 H55            3.9529     3.5995     0.3836 H       
  56 H56           -0.8988    -6.6597    -4.6321 H       
  57 H57           -2.5824    -6.2174    -5.0035 H       
  58 H58           -1.2488    -5.5204    -5.9541 H       
  59 H59           -1.9668    -4.2826    -1.9240 H       
  60 H60           -3.0735    -5.4108    -2.7431 H       
  61 H61           -1.4558    -5.9579    -2.2409 H       
@<TRIPOS>BOND
   1    1    2 1
   2    1    9 1
   3    1   28 1
   4    1   29 1
   5    2    3 1
   6    2    6 2
   7    3    4 1
   8    3   15 1
   9    4    5 2
  10    4   18 1
  11    5    6 1
  12    5    7 1
  13    7    8 am
  14    7   10 2
  15    8   11 1
  16    8   30 1
  17    9   20 1
  18    9   31 1
  19    9   32 1
  20   11   12 1
  21   11   13 1
  22   11   33 1
  23   12   14 1
  24   12   26 1
  25   12   27 1
  26   13   19 2
  27   13   23 am
  28   14   34 1
  29   14   35 1
  30   14   36 1
  31   15   16 1
  32   15   37 1
  33   15   38 1
  34   16   17 1
  35   16   39 1
  36   16   40 1
  37   17   18 1
  38   17   41 1
  39   17   42 1
  40   18   43 1
  41   18   44 1
  42   20   21 1
  43   20   22 1
  44   20   25 1
  45   21   45 1
  46   21   46 1
  47   21   47 1
  48   22   48 1
  49   23   24 1
  50   23   49 1
  51   24   50 1
  52   24   51 1
  53   24   52 1
  54   25   53 1
  55   25   54 1
  56   25   55 1
  57   26   56 1
  58   26   57 1
  59   26   58 1
  60   27   59 1
  61   27   60 1
  62   27   61 1

#	End of record

