#	Name: ASD01120382
#	Creating user name:	WinNT
#	Creation time:	15. 06. 2019 18:59

#	Modifying user name:	WinNT
#	Modification time:	15. 06. 2019 18:59

#	Program:	/corina/corina34_cracker 3.40 0067  02.08.2006

@<TRIPOS>MOLECULE
ASD01120382
  33   34    0    0    0
SMALL
NO_CHARGES


@<TRIPOS>ATOM
   1 C1            -0.0162     1.3436     0.0094 C.2     
   2 N2             0.0021    -0.0041     0.0020 N.am    
   3 O3             1.0284     1.9657     0.0028 O.2     
   4 O4            -2.5831     4.0402     0.0015 O.2     
   5 S5            -1.2149     3.6573     0.0277 S.o2    
   6 O6            -0.3130     4.0652     1.0472 O.2     
   7 C7             1.2155    -0.6828    -0.0132 C.2     
   8 C8            -0.7854     4.8200    -3.7943 C.ar    
   9 N9            -1.1924     2.0015     0.0186 N.am    
  10 C10           -1.3320     4.3964    -2.5976 C.ar    
  11 C11            1.3892     4.8441    -2.7928 C.ar    
  12 C12            0.5755     5.0433    -3.8921 C.ar    
  13 C13           -0.5180     4.1968    -1.4981 C.ar    
  14 C14            0.8424     4.4208    -1.5956 C.ar    
  15 C15            3.1395    -2.2193    -0.0405 C.2     
  16 C16            3.4330    -0.9171    -0.0408 C.2     
  17 S17            1.3856    -2.3839    -0.0240 S.3     
  18 N18            2.3816    -0.1178    -0.0270 N.2     
  19 C19            2.8726     5.0874    -2.8994 C.3     
  20 C20            3.1777     6.5432    -2.5409 C.3     
  21 Br21           4.3882    -3.6393    -0.0589 Br      
  22 H22           -0.8313    -0.5005     0.0073 H       
  23 H23           -1.4207     4.9717    -4.6544 H       
  24 H24           -2.0258     1.5051     0.0198 H       
  25 H25           -2.3951     4.2217    -2.5213 H       
  26 H26            1.0027     5.3740    -4.8273 H       
  27 H27            1.4782     4.2652    -0.7366 H       
  28 H28            4.4477    -0.5472    -0.0498 H       
  29 H29            3.3996     4.4258    -2.2119 H       
  30 H30            3.2012     4.8879    -3.9193 H       
  31 H31            2.6507     7.2048    -3.2283 H       
  32 H32            2.8492     6.7427    -1.5209 H       
  33 H33            4.2507     6.7192    -2.6180 H       
@<TRIPOS>BOND
   1    1    2 am
   2    1    3 2
   3    1    9 am
   4    2    7 1
   5    2   22 1
   6    4    5 2
   7    5    6 2
   8    5    9 am
   9    5   13 1
  10    7   17 1
  11    7   18 2
  12    8   10 ar
  13    8   12 ar
  14    8   23 1
  15    9   24 1
  16   10   13 ar
  17   10   25 1
  18   11   12 ar
  19   11   14 ar
  20   11   19 1
  21   12   26 1
  22   13   14 ar
  23   14   27 1
  24   15   16 2
  25   15   17 1
  26   15   21 1
  27   16   18 1
  28   16   28 1
  29   19   20 1
  30   19   29 1
  31   19   30 1
  32   20   31 1
  33   20   32 1
  34   20   33 1

#	End of record

