#	Name: ASD01882109
#	Creating user name:	WinNT
#	Creation time:	15. 06. 2019 19:43

#	Modifying user name:	WinNT
#	Modification time:	15. 06. 2019 19:43

#	Program:	/corina/corina34_cracker 3.40 0067  02.08.2006

@<TRIPOS>MOLECULE
ASD01882109
  51   54    0    0    0
SMALL
NO_CHARGES


@<TRIPOS>ATOM
   1 C1            -0.0161     1.3337     0.0094 C.2     
   2 N2             0.0021    -0.0041     0.0020 N.am    
   3 C3             1.2613    -0.4841    -0.0126 C.2     
   4 C4             2.1640     0.7337    -0.0147 C.3     
   5 N5             1.2200     1.8645     0.0004 N.am    
   6 O6            -1.0354     1.9955     0.0180 O.2     
   7 O7             1.6013    -1.6477    -0.0215 O.2     
   8 C8            -1.1986    -0.8435     0.0097 C.3     
   9 C9             1.5609     3.2893     0.0041 C.3     
  10 C10            1.6916     3.7708     1.4261 C.ar    
  11 C11            2.9179     3.7119     2.0635 C.ar    
  12 C12            3.0436     4.1515     3.3656 C.ar    
  13 C13            1.9317     4.6556     4.0386 C.ar    
  14 C14            0.6984     4.7125     3.3911 C.ar    
  15 C15            0.5860     4.2753     2.0870 C.ar    
  16 C16            2.2834     6.7363     9.3451 C.2     
  17 N17            1.6895     7.9330     9.1993 N.am    
  18 C18            1.2708     8.0855     7.8013 C.3     
  19 C19            1.6860     6.8181     7.0961 C.ar    
  20 C20            1.5657     6.3832     5.7994 C.ar    
  21 C21            2.0602     5.1289     5.4377 C.ar    
  22 C22            2.6756     4.3205     6.3955 C.ar    
  23 C23            2.7956     4.7573     7.6965 C.ar    
  24 C24            2.3008     6.0130     8.0600 C.ar    
  25 O25            2.7451     6.3125    10.3868 O.2     
  26 C26            1.4925     8.9226    10.2614 C.3     
  27 C27            0.6424     8.3111    11.3769 C.3     
  28 C28            2.8512     9.3412    10.8268 C.3     
  29 Cl29           3.2906     2.7606     5.9458 Cl      
  30 H30            2.7924     0.7467     0.8759 H       
  31 H31            2.7753     0.7564    -0.9169 H       
  32 H32           -1.5068    -1.0461    -1.0159 H       
  33 H33           -0.9813    -1.7838     0.5163 H       
  34 H34           -2.0010    -0.3250     0.5345 H       
  35 H35            2.5060     3.4381    -0.5182 H       
  36 H36            0.7749     3.8522    -0.4994 H       
  37 H37            3.7786     3.3209     1.5412 H       
  38 H38            4.0014     4.1047     3.8623 H       
  39 H39           -0.1663     5.1021     3.9076 H       
  40 H40           -0.3679     4.3233     1.5828 H       
  41 H41            0.1892     8.2081     7.7454 H       
  42 H42            1.7695     8.9445     7.3524 H       
  43 H43            1.0888     7.0103     5.0606 H       
  44 H44            3.2714     4.1295     8.4354 H       
  45 H45            0.9836     9.7963     9.8542 H       
  46 H46            0.4958     9.0474    12.1672 H       
  47 H47           -0.3256     8.0129    10.9741 H       
  48 H48            1.1512     7.4374    11.7841 H       
  49 H49            3.4568     9.7768    10.0321 H       
  50 H50            2.7046    10.0775    11.6171 H       
  51 H51            3.3600     8.4675    11.2340 H       
@<TRIPOS>BOND
   1    1    2 am
   2    1    5 am
   3    1    6 2
   4    2    3 am
   5    2    8 1
   6    3    4 1
   7    3    7 2
   8    4    5 1
   9    4   30 1
  10    4   31 1
  11    5    9 1
  12    8   32 1
  13    8   33 1
  14    8   34 1
  15    9   10 1
  16    9   35 1
  17    9   36 1
  18   10   11 ar
  19   10   15 ar
  20   11   12 ar
  21   11   37 1
  22   12   13 ar
  23   12   38 1
  24   13   14 ar
  25   13   21 1
  26   14   15 ar
  27   14   39 1
  28   15   40 1
  29   16   17 am
  30   16   24 1
  31   16   25 2
  32   17   18 1
  33   17   26 1
  34   18   19 1
  35   18   41 1
  36   18   42 1
  37   19   20 ar
  38   19   24 ar
  39   20   21 ar
  40   20   43 1
  41   21   22 ar
  42   22   23 ar
  43   22   29 1
  44   23   24 ar
  45   23   44 1
  46   26   27 1
  47   26   28 1
  48   26   45 1
  49   27   46 1
  50   27   47 1
  51   27   48 1
  52   28   49 1
  53   28   50 1
  54   28   51 1

#	End of record

