#	Name: ASD00843270
#	Creating user name:	WinNT
#	Creation time:	15. 06. 2019 18:46

#	Modifying user name:	WinNT
#	Modification time:	15. 06. 2019 18:46

#	Program:	/corina/corina34_cracker 3.40 0067  02.08.2006

@<TRIPOS>MOLECULE
ASD00843270
  97  102    0    0    0
SMALL
NO_CHARGES


@<TRIPOS>ATOM
   1 N1             1.0058     1.1651    -0.3196 N.ar    
   2 C2             1.1712    -0.1206    -0.5818 C.ar    
   3 C3             1.0332    -1.0711     0.4220 C.ar    
   4 C4             0.7196    -0.6556     1.7041 C.ar    
   5 C5             0.5543     0.7028     1.9381 C.ar    
   6 C6             0.7065     1.5916     0.8928 C.ar    
   7 C7             1.2220    -2.5351     0.1184 C.3     
   8 C8             0.8762    -3.3765     1.3285 C.2     
   9 C9             0.3679    -2.9466    -1.0824 C.3     
  10 C10           -1.0694    -2.5715    -0.8287 C.2     
  11 N11           -2.0270    -2.9430    -1.7014 N.am    
  12 O12           -1.3646    -1.9354     0.1608 O.2     
  13 C13           -3.4137    -2.4891    -1.5292 C.3     
  14 C14           -4.3363    -3.7120    -1.5285 C.3     
  15 C15           -4.0955    -4.5284    -2.8004 C.3     
  16 C16           -2.6456    -5.0173    -2.8280 C.3     
  17 C17           -1.7027    -3.8045    -2.8465 C.3     
  18 N18           -5.0021    -5.6842    -2.8190 N.3     
  19 C19           -4.8831    -6.4265    -4.0817 C.3     
  20 C20           -5.7822    -7.6640    -4.0295 C.3     
  21 N21           -7.1719    -7.2471    -3.7960 N.3     
  22 C22           -7.2909    -6.5047    -2.5333 C.3     
  23 C23           -6.3918    -5.2672    -2.5855 C.3     
  24 C24           -8.0785    -8.4028    -3.8146 C.3     
  25 O25           -0.2031    -3.4381     1.8784 O.2     
  26 N26            1.9897    -4.0419     1.6791 N.am    
  27 C27            2.6805    -2.8392    -0.1363 C.ar    
  28 C28            3.0663    -3.7492     0.8402 C.ar    
  29 C29            3.5765    -2.3981    -1.0838 C.ar    
  30 C30            4.8811    -2.8624    -1.0704 C.ar    
  31 C31            5.2786    -3.7703    -0.1017 C.ar    
  32 C32            4.3796    -4.2134     0.8496 C.ar    
  33 Cl33           6.0146    -2.3096    -2.2634 Cl      
  34 F34            6.5509    -4.2242    -0.0873 F       
  35 C35            1.6608    -6.6901     2.3521 C.ar    
  36 C36            0.3837    -6.9400     1.8705 C.ar    
  37 C37            2.6099    -7.6946     2.3504 C.ar    
  38 C38            2.2901    -8.9496     1.8692 C.ar    
  39 C39            1.0140    -9.2045     1.3865 C.ar    
  40 C40            0.0601    -8.1988     1.3875 C.ar    
  41 O41            0.6999   -10.4392     0.9137 O.3     
  42 O42           -0.5493    -5.9519     1.8728 O.3     
  43 C43           -1.8430    -6.2801     1.3623 C.3     
  44 C44            1.7319   -11.4272     0.9435 C.3     
  45 C45           -9.4921    -7.9482    -3.4457 C.3     
  46 C46           -8.0902    -9.0193    -5.2149 C.3     
  47 S47            2.0749    -5.0888     2.9593 S.o2    
  48 O48            3.4425    -5.1456     3.3408 O.2     
  49 O49            1.0338    -4.7166     3.8520 O.2     
  50 O50            1.4780    -0.5151    -1.8431 O.3     
  51 C51            1.5648     0.5059    -2.8391 C.3     
  52 C52            2.0081    -0.1128    -4.1664 C.3     
  53 F53            3.2199    -0.7877    -3.9846 F       
  54 F54            1.0341    -1.0142    -4.6091 F       
  55 H55            0.6058    -1.3718     2.5044 H       
  56 H56            0.3089     1.0604     2.9272 H       
  57 H57            0.5793     2.6494     1.0696 H       
  58 H58            0.7251    -2.4335    -1.9753 H       
  59 H59            0.4418    -4.0242    -1.2286 H       
  60 H60           -3.5095    -1.9585    -0.5818 H       
  61 H61           -3.6860    -1.8264    -2.3507 H       
  62 H62           -4.1231    -4.3281    -0.6549 H       
  63 H63           -5.3753    -3.3839    -1.4980 H       
  64 H64           -4.2851    -3.9044    -3.6737 H       
  65 H65           -2.4483    -5.6210    -1.9422 H       
  66 H66           -2.4812    -5.6181    -3.7224 H       
  67 H67           -1.8369    -3.2516    -3.7762 H       
  68 H68           -0.6698    -4.1435    -2.7664 H       
  69 H69           -5.1912    -5.7878    -4.9094 H       
  70 H70           -3.8477    -6.7351    -4.2259 H       
  71 H71           -5.7177    -8.2005    -4.9761 H       
  72 H72           -5.4570    -8.3159    -3.2187 H       
  73 H73           -8.3263    -6.1961    -2.3891 H       
  74 H74           -6.9828    -7.1434    -1.7055 H       
  75 H75           -6.4563    -4.7307    -1.6389 H       
  76 H76           -6.7170    -4.6154    -3.3962 H       
  77 H77           -7.7358    -9.1451    -3.0937 H       
  78 H78            3.2622    -1.6908    -1.8371 H       
  79 H79            4.6959    -4.9207     1.6019 H       
  80 H80            3.6034    -7.4982     2.7256 H       
  81 H81            3.0337    -9.7327     1.8683 H       
  82 H82           -0.9335    -8.3953     1.0126 H       
  83 H83           -1.7540    -6.5965     0.3230 H       
  84 H84           -2.2721    -7.0895     1.9530 H       
  85 H85           -2.4898    -5.4047     1.4215 H       
  86 H86            1.3495   -12.3643     0.5389 H       
  87 H87            2.5758   -11.0893     0.3420 H       
  88 H88            2.0575   -11.5816     1.9722 H       
  89 H89           -9.8348    -7.2060    -4.1666 H       
  90 H90          -10.1647    -8.8058    -3.4595 H       
  91 H91           -9.4837    -7.5090    -2.4481 H       
  92 H92           -7.0831    -9.3432    -5.4777 H       
  93 H93           -8.7628    -9.8769    -5.2287 H       
  94 H94           -8.4329    -8.2771    -5.9358 H       
  95 H95            0.5888     0.9748    -2.9648 H       
  96 H96            2.2911     1.2566    -2.5276 H       
  97 H97            2.1385     0.6747    -4.9087 H       
@<TRIPOS>BOND
   1    1    2 ar
   2    1    6 ar
   3    2    3 ar
   4    2   50 1
   5    3    4 ar
   6    3    7 1
   7    4    5 ar
   8    4   55 1
   9    5    6 ar
  10    5   56 1
  11    6   57 1
  12    7    8 1
  13    7    9 1
  14    7   27 1
  15    8   25 2
  16    8   26 am
  17    9   10 1
  18    9   58 1
  19    9   59 1
  20   10   11 am
  21   10   12 2
  22   11   13 1
  23   11   17 1
  24   13   14 1
  25   13   60 1
  26   13   61 1
  27   14   15 1
  28   14   62 1
  29   14   63 1
  30   15   16 1
  31   15   18 1
  32   15   64 1
  33   16   17 1
  34   16   65 1
  35   16   66 1
  36   17   67 1
  37   17   68 1
  38   18   19 1
  39   18   23 1
  40   19   20 1
  41   19   69 1
  42   19   70 1
  43   20   21 1
  44   20   71 1
  45   20   72 1
  46   21   22 1
  47   21   24 1
  48   22   23 1
  49   22   73 1
  50   22   74 1
  51   23   75 1
  52   23   76 1
  53   24   45 1
  54   24   46 1
  55   24   77 1
  56   26   47 am
  57   26   28 1
  58   27   28 ar
  59   27   29 ar
  60   28   32 ar
  61   29   30 ar
  62   29   78 1
  63   30   31 ar
  64   30   33 1
  65   31   32 ar
  66   31   34 1
  67   32   79 1
  68   35   36 ar
  69   35   37 ar
  70   35   47 1
  71   36   42 1
  72   36   40 ar
  73   37   38 ar
  74   37   80 1
  75   38   39 ar
  76   38   81 1
  77   39   40 ar
  78   39   41 1
  79   40   82 1
  80   41   44 1
  81   42   43 1
  82   43   83 1
  83   43   84 1
  84   43   85 1
  85   44   86 1
  86   44   87 1
  87   44   88 1
  88   45   89 1
  89   45   90 1
  90   45   91 1
  91   46   92 1
  92   46   93 1
  93   46   94 1
  94   47   48 2
  95   47   49 2
  96   50   51 1
  97   51   52 1
  98   51   95 1
  99   51   96 1
 100   52   53 1
 101   52   54 1
 102   52   97 1

#	End of record

