#	Name: ASD01410356
#	Creating user name:	WinNT
#	Creation time:	15. 06. 2019 19:17

#	Modifying user name:	WinNT
#	Modification time:	15. 06. 2019 19:17

#	Program:	/corina/corina34_cracker 3.40 0067  02.08.2006

@<TRIPOS>MOLECULE
ASD01410356
  74   79    0    0    0
SMALL
NO_CHARGES


@<TRIPOS>ATOM
   1 N1             0.0813     1.5571     0.4246 N.pl3   
   2 C2             0.1224     0.1911     0.5696 C.2     
   3 C3            -1.1446    -0.2896     0.6638 C.2     
   4 C4            -2.0326     0.8086     0.5761 C.ar    
   5 C5            -1.2385     1.9650     0.4314 C.ar    
   6 C6            -3.4306     0.9188     0.6106 C.ar    
   7 C7            -4.0204     2.1400     0.4990 C.ar    
   8 C8            -3.2385     3.2956     0.3487 C.ar    
   9 C9            -1.8467     3.2040     0.3201 C.ar    
  10 C10           -2.3215    -1.9037     2.1331 C.3     
  11 C11           -2.7180    -3.3716     2.3033 C.3     
  12 C12           -3.5884    -3.8050     1.1220 C.3     
  13 C13           -2.8020    -3.6368    -0.1796 C.3     
  14 C14           -2.4055    -2.1689    -0.3499 C.3     
  15 C15           -1.5352    -1.7354     0.8315 C.3     
  16 C16            1.2454     2.4364     0.2912 C.3     
  17 C17            1.5970     2.5866    -1.1665 C.2     
  18 O18            0.9398     2.0154    -2.0108 O.2     
  19 C19            2.9967     3.5119    -2.9491 C.3     
  20 N20            2.6417     3.3557    -1.5320 N.am    
  21 C21            3.4468     4.0543    -0.5209 C.3     
  22 C22            4.4758     3.1558    -3.1290 C.3     
  23 C23            4.9208     3.6922    -0.7279 C.3     
  24 C24            5.3199     4.0015    -2.1727 C.3     
  25 C25            3.4423    -1.2699    -0.0896 C.2     
  26 C26            2.4133    -0.4484    -0.2732 C.2     
  27 S27            3.1176    -2.3488     1.2598 S.3     
  28 C28            1.5443    -1.6081     1.5210 C.2     
  29 C29            1.3523    -0.6267     0.6158 C.2     
  30 C30            8.6348     4.4912    -3.6557 C.3     
  31 C31            7.1742     4.0110    -3.7425 C.3     
  32 N32            6.7416     3.6864    -2.3658 N.3     
  33 C33            7.5953     4.5070    -1.4691 C.3     
  34 C34            8.9854     4.4474    -2.1506 C.3     
  35 C35           -3.8897     4.6116     0.2289 C.2     
  36 O36           -3.2149     5.6139     0.0987 O.2     
  37 O37           -5.2339     4.7040     0.2636 O.3     
  38 H38           -4.0391     0.0340     0.7256 H       
  39 H39           -5.0971     2.2203     0.5257 H       
  40 H40           -1.2466     4.0945     0.2048 H       
  41 H41           -3.2193    -1.2866     2.0976 H       
  42 H42           -1.7015    -1.5949     2.9747 H       
  43 H43           -1.8202    -3.9887     2.3388 H       
  44 H44           -3.2782    -3.4914     3.2306 H       
  45 H45           -3.8708    -4.8508     1.2432 H       
  46 H46           -4.4862    -3.1880     1.0864 H       
  47 H47           -1.9042    -4.2539    -0.1441 H       
  48 H48           -3.4221    -3.9456    -1.0212 H       
  49 H49           -1.8453    -2.0490    -1.2772 H       
  50 H50           -3.3033    -1.5518    -0.3854 H       
  51 H51           -0.6374    -2.3525     0.8670 H       
  52 H52            1.0118     3.4147     0.7112 H       
  53 H53            2.0908     2.0037     0.8261 H       
  54 H54            2.3839     2.8445    -3.5551 H       
  55 H55            2.8295     4.5443    -3.2561 H       
  56 H56            3.3163     5.1310    -0.6298 H       
  57 H57            3.1310     3.7448     0.4754 H       
  58 H58            4.6250     2.0989    -2.9083 H       
  59 H59            4.7766     3.3594    -4.1567 H       
  60 H60            5.5384     4.2775    -0.0467 H       
  61 H61            5.0659     2.6302    -0.5298 H       
  62 H62            5.1513     5.0587    -2.3776 H       
  63 H63            4.3434    -1.2765    -0.6849 H       
  64 H64            2.3996     0.3005    -1.0513 H       
  65 H65            0.8399    -1.8952     2.2878 H       
  66 H66            9.2871     3.8213    -4.2158 H       
  67 H67            8.7214     5.5094    -4.0348 H       
  68 H68            6.5467     4.8027    -4.1519 H       
  69 H69            7.1122     3.1222    -4.3704 H       
  70 H70            7.2319     5.5337    -1.4255 H       
  71 H71            7.6369     4.0699    -0.4715 H       
  72 H72            9.4979     3.5183    -1.9009 H       
  73 H73            9.5899     5.3100    -1.8701 H       
  74 H74           -5.6154     5.5887     0.1812 H       
@<TRIPOS>BOND
   1    1    2 1
   2    1   16 1
   3    1    5 1
   4    2    3 2
   5    2   29 1
   6    3    4 1
   7    3   15 1
   8    4    5 ar
   9    4    6 ar
  10    5    9 ar
  11    6    7 ar
  12    6   38 1
  13    7    8 ar
  14    7   39 1
  15    8    9 ar
  16    8   35 1
  17    9   40 1
  18   10   11 1
  19   10   15 1
  20   10   41 1
  21   10   42 1
  22   11   12 1
  23   11   43 1
  24   11   44 1
  25   12   13 1
  26   12   45 1
  27   12   46 1
  28   13   14 1
  29   13   47 1
  30   13   48 1
  31   14   15 1
  32   14   49 1
  33   14   50 1
  34   15   51 1
  35   16   17 1
  36   16   52 1
  37   16   53 1
  38   17   18 2
  39   17   20 am
  40   19   20 1
  41   19   22 1
  42   19   54 1
  43   19   55 1
  44   20   21 1
  45   21   23 1
  46   21   56 1
  47   21   57 1
  48   22   24 1
  49   22   58 1
  50   22   59 1
  51   23   24 1
  52   23   60 1
  53   23   61 1
  54   24   32 1
  55   24   62 1
  56   25   26 2
  57   25   27 1
  58   25   63 1
  59   26   29 1
  60   26   64 1
  61   27   28 1
  62   28   29 2
  63   28   65 1
  64   30   31 1
  65   30   34 1
  66   30   66 1
  67   30   67 1
  68   31   32 1
  69   31   68 1
  70   31   69 1
  71   32   33 1
  72   33   34 1
  73   33   70 1
  74   33   71 1
  75   34   72 1
  76   34   73 1
  77   35   36 2
  78   35   37 1
  79   37   74 1

#	End of record

