#	Name: ASD01948111
#	Creating user name:	WinNT
#	Creation time:	15. 06. 2019 20:13

#	Modifying user name:	WinNT
#	Modification time:	15. 06. 2019 20:13

#	Program:	/corina/corina34_cracker 3.40 0067  02.08.2006

@<TRIPOS>MOLECULE
ASD01948111
  46   48    0    0    0
SMALL
NO_CHARGES


@<TRIPOS>ATOM
   1 C1             1.7970     1.4188    -1.0548 C.ar    
   2 C2             1.6013     0.0446    -1.1488 C.ar    
   3 C3             1.7836    -0.5977    -2.3656 C.ar    
   4 C4             2.1588     0.1284    -3.4797 C.ar    
   5 C5             2.3534     1.4945    -3.3844 C.ar    
   6 C6             2.1672     2.1402    -2.1745 C.ar    
   7 N7             1.2218    -0.6885    -0.0188 N.pl3   
   8 C8             3.6314    -2.2822    -0.4455 C.2     
   9 C9             2.3519    -2.8721    -0.2942 C.2     
  10 C10            1.1518    -2.0656    -0.0810 C.2     
  11 C11            6.0299    -2.5383    -0.8060 C.3     
  12 N12            4.6879    -3.1032    -0.6443 N.am    
  13 F13            1.6202     2.0481     0.1275 F       
  14 Br14           2.8680     2.4831    -4.9121 Br      
  15 C15            2.2383    -4.2685    -0.3508 C.2     
  16 N16            1.0120    -4.8542    -0.2064 N.am    
  17 C17           -0.0970    -4.1220    -0.0092 C.2     
  18 C18           -0.0587    -2.7265     0.0572 C.2     
  19 C19            4.5111    -4.4443    -0.6945 C.2     
  20 N20            3.3413    -5.0040    -0.5460 N.2     
  21 O21            3.7748    -1.0730    -0.4029 O.2     
  22 C22            0.9044    -6.3140    -0.2672 C.3     
  23 O23           -1.1692    -4.6917     0.1132 O.2     
  24 C24            6.7027    -2.4222     0.5632 C.3     
  25 C25            8.1043    -1.8323     0.3943 C.3     
  26 O26            5.9250    -1.5689     1.4053 O.3     
  27 O27            8.7760    -1.8316     1.6556 O.3     
  28 C28           -1.3273    -1.9441     0.2799 C.3     
  29 H29            1.6327    -1.6644    -2.4414 H       
  30 H30            2.3006    -0.3716    -4.4265 H       
  31 H31            2.3199     3.2070    -2.1030 H       
  32 H32            1.0079    -0.2289     0.8082 H       
  33 H33            6.6231    -3.1892    -1.4483 H       
  34 H34            5.9558    -1.5499    -1.2595 H       
  35 H35            5.3724    -5.0760    -0.8545 H       
  36 H36            1.0226    -6.7290     0.7338 H       
  37 H37           -0.0734    -6.5901    -0.6618 H       
  38 H38            1.6839    -6.7090    -0.9186 H       
  39 H39            6.7768    -3.4106     1.0166 H       
  40 H40            8.6686    -2.4345    -0.3176 H       
  41 H41            8.0260    -0.8101     0.0238 H       
  42 H42            5.8172    -0.6709     1.0632 H       
  43 H43            9.6723    -1.4703     1.6237 H       
  44 H44           -2.1792    -2.6241     0.2749 H       
  45 H45           -1.2754    -1.4339     1.2418 H       
  46 H46           -1.4449    -1.2084    -0.5157 H       
@<TRIPOS>BOND
   1    1    2 ar
   2    1   13 1
   3    1    6 ar
   4    2    3 ar
   5    2    7 1
   6    3    4 ar
   7    3   29 1
   8    4    5 ar
   9    4   30 1
  10    5    6 ar
  11    5   14 1
  12    6   31 1
  13    7   10 1
  14    7   32 1
  15    8    9 1
  16    8   21 2
  17    8   12 am
  18    9   10 1
  19    9   15 2
  20   10   18 2
  21   11   12 1
  22   11   24 1
  23   11   33 1
  24   11   34 1
  25   12   19 1
  26   15   16 1
  27   15   20 1
  28   16   17 am
  29   16   22 1
  30   17   18 1
  31   17   23 2
  32   18   28 1
  33   19   20 2
  34   19   35 1
  35   22   36 1
  36   22   37 1
  37   22   38 1
  38   24   25 1
  39   24   26 1
  40   24   39 1
  41   25   27 1
  42   25   40 1
  43   25   41 1
  44   26   42 1
  45   27   43 1
  46   28   44 1
  47   28   45 1
  48   28   46 1

#	End of record

