#	Name: ASD01200277
#	Creating user name:	WinNT
#	Creation time:	15. 06. 2019 19:08

#	Modifying user name:	WinNT
#	Modification time:	15. 06. 2019 19:08

#	Program:	/corina/corina34_cracker 3.40 0067  02.08.2006

@<TRIPOS>MOLECULE
ASD01200277
  51   53    0    0    0
SMALL
NO_CHARGES


@<TRIPOS>ATOM
   1 C1             1.0771     0.8914     0.5595 C.2     
   2 C2             1.6459    -0.1904     1.1247 C.2     
   3 N3             2.9771    -0.0367     1.0679 N.2     
   4 C4             3.2548     1.0994     0.4889 C.2     
   5 N5             2.0972     1.7100     0.1560 N.pl3   
   6 C6             0.9149    -1.3676     1.7172 C.3     
   7 F7             0.7082    -2.3345     0.7274 F       
   8 F8             1.6777    -1.9167     2.7535 F       
   9 F9            -0.3198    -0.9444     2.2207 F       
  10 C10            1.9591     3.0061    -0.5129 C.3     
  11 C11            2.6373     2.9521    -1.8576 C.2     
  12 C12            2.6104     4.0939     0.3435 C.3     
  13 C13            1.8689     4.2052     1.6772 C.3     
  14 C14            2.6091     5.1775     2.6122 C.3     
  15 C15            1.6258     6.3250     2.9225 C.3     
  16 C16            0.2278     5.7016     2.6861 C.3     
  17 C17            0.4617     4.7957     1.4518 C.3     
  18 N18            2.5080     3.9804    -2.7193 N.am    
  19 O19            3.2995     1.9835    -2.1644 O.2     
  20 C20            3.1732     3.9509    -3.9454 C.ar    
  21 C21            3.5958     2.7343    -4.4686 C.ar    
  22 C22            4.2542     2.7153    -5.6846 C.ar    
  23 C23            4.4694     3.9260    -6.3419 C.ar    
  24 C24            4.0188     5.1020    -5.7580 C.ar    
  25 N25            3.3896     5.0811    -4.5993 N.ar    
  26 N26            5.1313     3.9552    -7.5735 N.am    
  27 C27            4.9686     2.9446    -8.4502 C.2     
  28 C28            5.7654     2.9157    -9.7126 C.2     
  29 O29            5.6030     1.9067   -10.5878 O.3     
  30 O30            4.1742     2.0578    -8.2134 O.2     
  31 O31            6.5590     3.8016    -9.9491 O.2     
  32 H32            0.0193     1.0756     0.4427 H       
  33 H33            4.2462     1.4872     0.3066 H       
  34 H34            0.9019     3.2343    -0.6481 H       
  35 H35            3.6531     3.8355     0.5279 H       
  36 H36            2.5598     5.0481    -0.1810 H       
  37 H37            1.7922     3.2234     2.1444 H       
  38 H38            2.8908     4.6679     3.5337 H       
  39 H39            3.4965     5.5702     2.1159 H       
  40 H40            1.7298     6.6469     3.9587 H       
  41 H41            1.7900     7.1620     2.2438 H       
  42 H42           -0.0815     5.1091     3.5471 H       
  43 H43           -0.5075     6.4750     2.4639 H       
  44 H44            0.4378     5.3857     0.5356 H       
  45 H45           -0.2839     4.0015     1.4147 H       
  46 H46            1.9525     4.7409    -2.4870 H       
  47 H47            3.4124     1.8152    -3.9319 H       
  48 H48            4.5940     1.7848    -6.1148 H       
  49 H49            4.1817     6.0441    -6.2602 H       
  50 H50            5.7075     4.7029    -7.7968 H       
  51 H51            6.1410     1.9313   -11.3909 H       
@<TRIPOS>BOND
   1    1    2 2
   2    1    5 1
   3    1   32 1
   4    2    3 1
   5    2    6 1
   6    3    4 2
   7    4    5 1
   8    4   33 1
   9    5   10 1
  10    6    7 1
  11    6    8 1
  12    6    9 1
  13   10   11 1
  14   10   12 1
  15   10   34 1
  16   11   18 am
  17   11   19 2
  18   12   13 1
  19   12   35 1
  20   12   36 1
  21   13   14 1
  22   13   17 1
  23   13   37 1
  24   14   15 1
  25   14   38 1
  26   14   39 1
  27   15   16 1
  28   15   40 1
  29   15   41 1
  30   16   17 1
  31   16   42 1
  32   16   43 1
  33   17   44 1
  34   17   45 1
  35   18   20 1
  36   18   46 1
  37   20   21 ar
  38   20   25 ar
  39   21   22 ar
  40   21   47 1
  41   22   23 ar
  42   22   48 1
  43   23   24 ar
  44   23   26 1
  45   24   25 ar
  46   24   49 1
  47   26   27 am
  48   26   50 1
  49   27   28 1
  50   27   30 2
  51   28   29 1
  52   28   31 2
  53   29   51 1

#	End of record

