#	Name: ASD01840137
#	Creating user name:	WinNT
#	Creation time:	15. 06. 2019 19:37

#	Modifying user name:	WinNT
#	Modification time:	15. 06. 2019 19:37

#	Program:	/corina/corina34_cracker 3.40 0067  02.08.2006

@<TRIPOS>MOLECULE
ASD01840137
  42   44    0    0    0
SMALL
NO_CHARGES


@<TRIPOS>ATOM
   1 C1             0.2614     1.7551    -0.9985 C.ar    
   2 C2             0.3847     0.5319    -1.6201 C.ar    
   3 N3             1.4997    -0.1674    -1.4974 N.ar    
   4 N4             2.5005     0.2430    -0.8118 N.ar    
   5 C5             1.3547     2.2266    -0.2367 C.ar    
   6 C6             1.5106     3.4573     0.5163 C.2     
   7 C7             2.4930     1.4121    -0.1671 C.ar    
   8 S8             3.7249     2.1824     0.8226 S.3     
   9 C9             2.7121     3.5788     1.1333 C.2     
  10 C10           -0.7556    -0.0109    -2.4424 C.3     
  11 C11           -0.9997     2.5694    -1.1319 C.3     
  12 C12            3.1107     4.7245     1.9497 C.2     
  13 N13            0.5181     4.4246     0.5973 N.pl3   
  14 O14            2.3408     5.6537     2.1117 O.2     
  15 N15            4.3302     4.7520     2.5228 N.am    
  16 C16            4.7295     5.8999     3.3407 C.3     
  17 C17            6.1273     5.6841     3.8608 C.ar    
  18 C18            6.3508     4.7860     4.8911 C.ar    
  19 C19            7.1852     6.3786     3.3051 C.ar    
  20 C20            8.4687     6.1827     3.7789 C.ar    
  21 C21            8.6971     5.2882     4.8135 C.ar    
  22 C22            7.6352     4.5868     5.3694 C.ar    
  23 O23            9.9594     5.0946     5.2798 O.3     
  24 C24           11.0034     5.8462     4.6574 C.3     
  25 F25            7.8549     3.7107     6.3741 F       
  26 F26            5.3160     4.1046     5.4298 F       
  27 H27           -0.6490     0.3208    -3.4752 H       
  28 H28           -0.7424    -1.1003    -2.4075 H       
  29 H29           -1.7003     0.3541    -2.0393 H       
  30 H30           -1.6440     2.3848    -0.2724 H       
  31 H31           -0.7454     3.6285    -1.1747 H       
  32 H32           -1.5216     2.2839    -2.0452 H       
  33 H33           -0.4027     4.1926     0.3992 H       
  34 H34            0.7455     5.3326     0.8518 H       
  35 H35            4.9435     4.0117     2.3937 H       
  36 H36            4.7032     6.8050     2.7340 H       
  37 H37            4.0418     6.0049     4.1799 H       
  38 H38            7.0086     7.0754     2.4990 H       
  39 H39            9.2940     6.7261     3.3430 H       
  40 H40           11.9572     5.5976     5.1228 H       
  41 H41           11.0429     5.6029     3.5957 H       
  42 H42           10.8064     6.9113     4.7791 H       
@<TRIPOS>BOND
   1    1    2 ar
   2    1    5 ar
   3    1   11 1
   4    2    3 ar
   5    2   10 1
   6    3    4 ar
   7    4    7 ar
   8    5    7 ar
   9    5    6 1
  10    6    9 2
  11    6   13 1
  12    7    8 1
  13    8    9 1
  14    9   12 1
  15   10   27 1
  16   10   28 1
  17   10   29 1
  18   11   30 1
  19   11   31 1
  20   11   32 1
  21   12   14 2
  22   12   15 am
  23   13   33 1
  24   13   34 1
  25   15   16 1
  26   15   35 1
  27   16   17 1
  28   16   36 1
  29   16   37 1
  30   17   19 ar
  31   17   18 ar
  32   18   22 ar
  33   18   26 1
  34   19   20 ar
  35   19   38 1
  36   20   21 ar
  37   20   39 1
  38   21   22 ar
  39   21   23 1
  40   22   25 1
  41   23   24 1
  42   24   40 1
  43   24   41 1
  44   24   42 1

#	End of record

