#	Name: ASD05430001
#	Creating user name:	WinNT
#	Creation time:	15. 06. 2019 20:59

#	Modifying user name:	WinNT
#	Modification time:	15. 06. 2019 20:59

#	Program:	/corina/corina34_cracker 3.40 0067  02.08.2006

@<TRIPOS>MOLECULE
ASD05430001
  61   66    0    0    0
SMALL
NO_CHARGES


@<TRIPOS>ATOM
   1 C1            -0.1028     1.1387    -0.5431 C.ar    
   2 C2            -0.0406    -0.0899     0.1135 C.ar    
   3 C3            -1.1798    -0.6259     0.7003 C.ar    
   4 C4            -2.3766     0.0537     0.6363 C.ar    
   5 C5            -2.4464     1.2867    -0.0203 C.ar    
   6 C6            -1.2985     1.8290    -0.6059 C.ar    
   7 C7            -4.9304    -0.1781    -0.2967 C.3     
   8 C8            -4.8843     1.3334    -0.1387 C.2     
   9 C9            -3.7243     2.0141    -0.0902 C.2     
  10 C10           -6.0666    -0.5182    -1.2702 C.3     
  11 C11           -7.4602    -0.0290    -0.8555 C.3     
  12 N12           -7.3688     1.3774    -0.4696 N.pl3   
  13 C13           -6.1981     2.0071    -0.0425 C.2     
  14 C14           -8.4148     2.4027    -0.4579 C.3     
  15 O15           -7.8605     3.4280     0.3927 O.3     
  16 N16           -6.4619     3.1803     0.4308 N.2     
  17 N17            1.1740    -0.7857     0.1812 N.pl3   
  18 C18            1.7496    -1.3126     1.3084 C.2     
  19 C19            2.9023    -1.8925     0.9230 C.2     
  20 N20            3.0319    -1.7272    -0.4017 N.2     
  21 C21            2.0004    -1.0705    -0.8585 C.2     
  22 C22           -5.7377    -0.5345    -2.7625 C.3     
  23 C23           -5.9798    -1.8490    -2.0175 C.3     
  24 C24           -8.6534     2.9354    -1.8473 C.ar    
  25 C25           -8.3302     2.1637    -2.9478 C.ar    
  26 C26           -9.2006     4.1931    -2.0203 C.ar    
  27 C27           -9.4207     4.6823    -3.2939 C.ar    
  28 C28           -9.0925     3.9124    -4.3969 C.ar    
  29 C29           -8.5489     2.6510    -4.2224 C.ar    
  30 F30           -9.3072     4.3896    -5.6424 F       
  31 C31           -9.7093     1.8470     0.1390 C.3     
  32 O32            1.0141     1.6602    -1.1167 O.3     
  33 C33            0.8776     2.9224    -1.7726 C.3     
  34 C34            3.8784    -2.6035     1.8246 C.3     
  35 H35           -1.1274    -1.5779     1.2076 H       
  36 H36           -3.2609    -0.3658     1.0928 H       
  37 H37           -1.3479     2.7810    -1.1136 H       
  38 H38           -3.9821    -0.5358    -0.6977 H       
  39 H39           -5.1216    -0.6440     0.6700 H       
  40 H40           -3.7310     3.0940    -0.1024 H       
  41 H41           -8.1488    -0.1339    -1.6939 H       
  42 H42           -7.8176    -0.6174    -0.0104 H       
  43 H43            1.3547    -1.2702     2.3127 H       
  44 H44            1.8350    -0.7942    -1.8893 H       
  45 H45           -6.5114    -0.1969    -3.4521 H       
  46 H46           -4.7135    -0.3028    -3.0547 H       
  47 H47           -5.1148    -2.4820    -1.8195 H       
  48 H48           -6.9128    -2.3761    -2.2168 H       
  49 H49           -7.9062     1.1798    -2.8115 H       
  50 H50           -9.4565     4.7934    -1.1597 H       
  51 H51           -9.8489     5.6646    -3.4288 H       
  52 H52           -8.2922     2.0497    -5.0821 H       
  53 H53           -9.5261     1.5188     1.1621 H       
  54 H54          -10.4730     2.6248     0.1382 H       
  55 H55          -10.0512     1.0016    -0.4581 H       
  56 H56            1.8404     3.2233    -2.1857 H       
  57 H57            0.1478     2.8366    -2.5776 H       
  58 H58            0.5405     3.6703    -1.0549 H       
  59 H59            3.6156    -3.6597     1.8834 H       
  60 H60            4.8860    -2.5017     1.4213 H       
  61 H61            3.8397    -2.1634     2.8210 H       
@<TRIPOS>BOND
   1    1    2 ar
   2    1   32 1
   3    1    6 ar
   4    2    3 ar
   5    2   17 1
   6    3    4 ar
   7    3   35 1
   8    4    5 ar
   9    4   36 1
  10    5    6 ar
  11    5    9 1
  12    6   37 1
  13    7    8 1
  14    7   10 1
  15    7   38 1
  16    7   39 1
  17    8    9 2
  18    8   13 1
  19    9   40 1
  20   10   11 1
  21   10   22 1
  22   10   23 1
  23   11   12 1
  24   11   41 1
  25   11   42 1
  26   12   13 1
  27   12   14 1
  28   13   16 2
  29   14   15 1
  30   14   24 1
  31   14   31 1
  32   15   16 1
  33   17   18 1
  34   17   21 1
  35   18   19 2
  36   18   43 1
  37   19   20 1
  38   19   34 1
  39   20   21 2
  40   21   44 1
  41   22   23 1
  42   22   45 1
  43   22   46 1
  44   23   47 1
  45   23   48 1
  46   24   25 ar
  47   24   26 ar
  48   25   29 ar
  49   25   49 1
  50   26   27 ar
  51   26   50 1
  52   27   28 ar
  53   27   51 1
  54   28   29 ar
  55   28   30 1
  56   29   52 1
  57   31   53 1
  58   31   54 1
  59   31   55 1
  60   32   33 1
  61   33   56 1
  62   33   57 1
  63   33   58 1
  64   34   59 1
  65   34   60 1
  66   34   61 1

#	End of record

