#	Name: ASD01840169
#	Creating user name:	WinNT
#	Creation time:	15. 06. 2019 19:37

#	Modifying user name:	WinNT
#	Modification time:	15. 06. 2019 19:37

#	Program:	/corina/corina34_cracker 3.40 0067  02.08.2006

@<TRIPOS>MOLECULE
ASD01840169
  43   46    0    0    0
SMALL
NO_CHARGES


@<TRIPOS>ATOM
   1 C1            -1.6159     1.6737    -0.5540 C.3     
   2 C2            -1.3338     0.1668    -0.4152 C.3     
   3 N3            -1.0083    -0.4914    -1.6829 N.am    
   4 C4            -1.2283    -1.8127    -1.8321 C.2     
   5 C5            -0.9035    -2.4696    -3.0974 C.2     
   6 O6            -1.6976    -2.4593    -0.9134 O.2     
   7 C7            -1.0873    -3.7901    -3.3456 C.2     
   8 C8            -0.6871    -4.2023    -4.6782 C.ar    
   9 C9            -0.1884    -3.1357    -5.4381 C.ar    
  10 S10           -0.2323    -1.6525    -4.4952 S.3     
  11 C11           -0.7287    -5.4756    -5.2906 C.ar    
  12 C12           -0.2789    -5.5853    -6.5880 C.ar    
  13 N13            0.1753    -4.5208    -7.2270 N.ar    
  14 N14            0.2198    -3.3593    -6.6894 N.ar    
  15 C15           -0.3041    -6.9232    -7.2811 C.3     
  16 C16           -1.2495    -6.6778    -4.5459 C.3     
  17 N17           -1.6119    -4.6695    -2.4080 N.pl3   
  18 C18           -0.0975     0.5744     0.4066 C.3     
  19 N19           -0.1692     1.8663    -0.3110 N.3     
  20 C20            0.0531     2.9304     0.5553 C.ar    
  21 N21            0.2936     2.6946     1.8360 N.ar    
  22 C22            0.0265     4.2330     0.0682 C.ar    
  23 C23            0.2494     5.2825     0.9415 C.ar    
  24 C24            0.4922     4.9927     2.2774 C.ar    
  25 C25            0.5097     3.6757     2.6914 C.ar    
  26 H26           -1.9368     1.9702    -1.5526 H       
  27 H27           -2.2512     2.0760     0.2351 H       
  28 H28           -2.0880    -0.3696     0.1606 H       
  29 H29           -0.6344     0.0237    -2.4148 H       
  30 H30           -1.2579    -7.0491    -7.7934 H       
  31 H31            0.5075    -6.9717    -8.0071 H       
  32 H32           -0.1801    -7.7166    -6.5440 H       
  33 H33           -2.3362    -6.7110    -4.6242 H       
  34 H34           -0.8262    -7.5845    -4.9783 H       
  35 H35           -0.9628    -6.6076    -3.4967 H       
  36 H36           -1.6075    -4.4345    -1.4669 H       
  37 H37           -1.9827    -5.5189    -2.6941 H       
  38 H38           -0.2887     0.6552     1.4767 H       
  39 H39            0.7947    -0.0075     0.1755 H       
  40 H40           -0.1652     4.4224    -0.9776 H       
  41 H41            0.2351     6.3042     0.5919 H       
  42 H42            0.6703     5.7893     2.9847 H       
  43 H43            0.7026     3.4456     3.7288 H       
@<TRIPOS>BOND
   1    1    2 1
   2    1   19 1
   3    1   26 1
   4    1   27 1
   5    2    3 1
   6    2   18 1
   7    2   28 1
   8    3    4 am
   9    3   29 1
  10    4    5 1
  11    4    6 2
  12    5    7 2
  13    5   10 1
  14    7    8 1
  15    7   17 1
  16    8    9 ar
  17    8   11 ar
  18    9   10 1
  19    9   14 ar
  20   11   12 ar
  21   11   16 1
  22   12   13 ar
  23   12   15 1
  24   13   14 ar
  25   15   30 1
  26   15   31 1
  27   15   32 1
  28   16   33 1
  29   16   34 1
  30   16   35 1
  31   17   36 1
  32   17   37 1
  33   18   19 1
  34   18   38 1
  35   18   39 1
  36   19   20 1
  37   20   22 ar
  38   20   21 ar
  39   21   25 ar
  40   22   23 ar
  41   22   40 1
  42   23   24 ar
  43   23   41 1
  44   24   25 ar
  45   24   42 1
  46   25   43 1

#	End of record

