#	Name: ASD03240649
#	Creating user name:	WinNT
#	Creation time:	15. 06. 2019 20:35

#	Modifying user name:	WinNT
#	Modification time:	15. 06. 2019 20:35

#	Program:	/corina/corina34_cracker 3.40 0067  02.08.2006

@<TRIPOS>MOLECULE
ASD03240649
  59   65    0    0    0
SMALL
NO_CHARGES


@<TRIPOS>ATOM
   1 C1            -0.0166     1.3755     0.0096 C.ar    
   2 C2             0.0021    -0.0041     0.0020 C.ar    
   3 N3             1.1422    -0.6683    -0.0058 N.ar    
   4 C4             2.3145    -0.0481    -0.0058 C.ar    
   5 C5             2.3702     1.3442    -0.0124 C.ar    
   6 C6             1.1860     2.0698     0.0018 C.ar    
   7 N7             3.4820    -0.8058     0.0220 N.pl3   
   8 C8             4.3592    -0.7194     1.0997 C.ar    
   9 C9             4.9951     0.4890     1.4037 C.ar    
  10 C10            4.7636     1.6835     0.5621 C.2     
  11 N11            3.5939     2.0276    -0.0512 N.pl3   
  12 C12            4.6051    -1.8391     1.8830 C.ar    
  13 C13            5.4648    -1.7537     2.9615 C.ar    
  14 C14            6.0857    -0.5556     3.2703 C.ar    
  15 C15            5.8559     0.5654     2.4984 C.ar    
  16 N16            5.6750     2.5942     0.2851 N.2     
  17 C17            5.1448     3.5396    -0.5060 C.2     
  18 C18            3.8226     3.2035    -0.7371 C.2     
  19 C19            2.8500     3.9530    -1.5556 C.ar    
  20 C20            2.7510     5.3411    -1.4323 C.ar    
  21 C21            2.0278     3.2785    -2.4617 C.ar    
  22 C22            1.1210     3.9855    -3.2233 C.ar    
  23 C23            1.0248     5.3597    -3.0921 C.ar    
  24 C24            1.8396     6.0351    -2.2005 C.ar    
  25 C25            5.8487     4.7305    -1.0359 C.ar    
  26 C26            0.0319     6.1252    -3.9283 C.3     
  27 C27            5.5520     5.2220    -2.3066 C.ar    
  28 N28           -1.0270     5.2704    -4.4814 N.3     
  29 C29           -0.4973     7.3974    -3.2455 C.3     
  30 C30           -0.4013     8.0804    -4.6200 C.3     
  31 C31            0.6858     7.0500    -4.9684 C.3     
  32 N32            6.1779     6.2806    -2.7786 N.ar    
  33 C33            7.0998     6.9138    -2.0793 C.ar    
  34 C34            7.4508     6.4883    -0.8106 C.ar    
  35 C35            6.8179     5.3841    -0.2675 C.ar    
  36 H36           -0.9556     1.9091     0.0170 H       
  37 H37           -0.9306    -0.5486     0.0028 H       
  38 H38            1.2002     3.1497     0.0064 H       
  39 H39            3.6863    -1.4002    -0.7168 H       
  40 H40            4.1239    -2.7773     1.6495 H       
  41 H41            5.6533    -2.6274     3.5677 H       
  42 H42            6.7519    -0.4977     4.1183 H       
  43 H43            6.3411     1.4991     2.7416 H       
  44 H44            3.3863     5.8694    -0.7368 H       
  45 H45            2.1024     2.2061    -2.5656 H       
  46 H46            0.4848     3.4654    -3.9242 H       
  47 H47            1.7591     7.1077    -2.1032 H       
  48 H48            4.8028     4.7302    -2.9093 H       
  49 H49           -0.6358     4.4616    -4.9407 H       
  50 H50           -1.6827     4.9973    -3.7647 H       
  51 H51           -1.5182     7.3021    -2.8756 H       
  52 H52            0.1858     7.8112    -2.5037 H       
  53 H53           -1.3054     7.9813    -5.2208 H       
  54 H54           -0.0329     9.1052    -4.5736 H       
  55 H55            1.6924     7.3689    -4.6976 H       
  56 H56            0.6200     6.6742    -5.9894 H       
  57 H57            7.5887     7.7780    -2.5041 H       
  58 H58            8.2077     7.0149    -0.2484 H       
  59 H59            7.0723     5.0303     0.7207 H       
@<TRIPOS>BOND
   1    1    2 ar
   2    1    6 ar
   3    1   36 1
   4    2    3 ar
   5    2   37 1
   6    3    4 ar
   7    4    5 ar
   8    4    7 1
   9    5    6 ar
  10    5   11 1
  11    6   38 1
  12    7    8 1
  13    7   39 1
  14    8    9 ar
  15    8   12 ar
  16    9   10 1
  17    9   15 ar
  18   10   11 1
  19   10   16 2
  20   11   18 1
  21   12   13 ar
  22   12   40 1
  23   13   14 ar
  24   13   41 1
  25   14   15 ar
  26   14   42 1
  27   15   43 1
  28   16   17 1
  29   17   18 2
  30   17   25 1
  31   18   19 1
  32   19   20 ar
  33   19   21 ar
  34   20   24 ar
  35   20   44 1
  36   21   22 ar
  37   21   45 1
  38   22   23 ar
  39   22   46 1
  40   23   24 ar
  41   23   26 1
  42   24   47 1
  43   25   27 ar
  44   25   35 ar
  45   26   29 1
  46   26   28 1
  47   26   31 1
  48   27   32 ar
  49   27   48 1
  50   28   49 1
  51   28   50 1
  52   29   30 1
  53   29   51 1
  54   29   52 1
  55   30   31 1
  56   30   53 1
  57   30   54 1
  58   31   55 1
  59   31   56 1
  60   32   33 ar
  61   33   34 ar
  62   33   57 1
  63   34   35 ar
  64   34   58 1
  65   35   59 1

#	End of record

