#	Name: ASD01028726
#	Creating user name:	WinNT
#	Creation time:	15. 06. 2019 18:58

#	Modifying user name:	WinNT
#	Modification time:	15. 06. 2019 18:58

#	Program:	/corina/corina34_cracker 3.40 0067  02.08.2006

@<TRIPOS>MOLECULE
ASD01028726
  46   50    0    0    0
SMALL
NO_CHARGES


@<TRIPOS>ATOM
   1 N1            -0.0157     1.3060     0.0092 N.ar    
   2 C2             0.0021    -0.0041     0.0020 C.ar    
   3 C3             1.2021    -0.7221    -0.0133 C.ar    
   4 C4             2.3969    -0.0518    -0.0211 C.ar    
   5 C5             2.3684     1.3549    -0.0132 C.ar    
   6 C6             3.5529     2.1090    -0.0204 C.ar    
   7 C7             3.4849     3.4690    -0.0125 C.ar    
   8 C8             2.2549     4.1229     0.0031 C.ar    
   9 C9             1.0873     3.4233     0.0109 C.ar    
  10 C10            1.1159     2.0180     0.0022 C.ar    
  11 O11            1.1831    -2.0810    -0.0200 O.3     
  12 C12           -0.0990    -2.7119    -0.0107 C.3     
  13 C13            4.7568     4.2772    -0.0202 C.3     
  14 C14            5.4048     5.4629    -3.4149 C.2     
  15 C15            5.2175     6.4211    -4.4305 C.2     
  16 C16            4.4316     7.5079    -4.1878 C.2     
  17 C17            3.8170     7.6574    -2.9224 C.2     
  18 C18            4.0113     6.7187    -1.9536 C.2     
  19 N19            4.7974     5.6304    -2.1947 N.pl3   
  20 N20            5.9416     3.8055    -2.1848 N.2     
  21 N21            6.0871     4.3296    -3.3507 N.2     
  22 C22            5.1673     4.5542    -1.4435 C.2     
  23 N23            1.3179    10.2868    -2.7283 N.pl3   
  24 N24            2.2379    10.7192    -1.7653 N.2     
  25 C25            3.2201     9.8583    -1.7138 C.2     
  26 C26            2.9588     8.8390    -2.6493 C.2     
  27 C27            1.7755     9.1335    -3.2598 C.2     
  28 C28            0.0714    10.9654    -3.0915 C.3     
  29 F29            5.8117     6.2644    -5.6336 F       
  30 F30            4.2411     8.4371    -5.1498 F       
  31 F31            3.4220     6.8672    -0.7470 F       
  32 H32           -0.9337    -0.5432     0.0084 H       
  33 H33            3.3343    -0.5880    -0.0325 H       
  34 H34            4.5124     1.6133    -0.0318 H       
  35 H35            2.2273     5.2025     0.0094 H       
  36 H36            0.1424     3.9461     0.0237 H       
  37 H37            0.0286    -3.7944    -0.0174 H       
  38 H38           -0.6432    -2.4158     0.8861 H       
  39 H39           -0.6605    -2.4068    -0.8937 H       
  40 H40            4.5911     5.2205     0.5002 H       
  41 H41            5.5456     3.7182     0.4832 H       
  42 H42            4.0825     9.9187    -1.0665 H       
  43 H43            1.2918     8.5495    -4.0288 H       
  44 H44            0.2635    11.6691    -3.9014 H       
  45 H45           -0.6621    10.2279    -3.4174 H       
  46 H46           -0.3146    11.5040    -2.2261 H       
@<TRIPOS>BOND
   1    1    2 ar
   2    1   10 ar
   3    2    3 ar
   4    2   32 1
   5    3    4 ar
   6    3   11 1
   7    4    5 ar
   8    4   33 1
   9    5    6 ar
  10    5   10 ar
  11    6    7 ar
  12    6   34 1
  13    7    8 ar
  14    7   13 1
  15    8    9 ar
  16    8   35 1
  17    9   10 ar
  18    9   36 1
  19   11   12 1
  20   12   37 1
  21   12   38 1
  22   12   39 1
  23   13   22 1
  24   13   40 1
  25   13   41 1
  26   14   15 1
  27   14   19 1
  28   14   21 2
  29   15   16 2
  30   15   29 1
  31   16   17 1
  32   16   30 1
  33   17   18 2
  34   17   26 1
  35   18   19 1
  36   18   31 1
  37   19   22 1
  38   20   21 1
  39   20   22 2
  40   23   24 1
  41   23   27 1
  42   23   28 1
  43   24   25 2
  44   25   26 1
  45   25   42 1
  46   26   27 2
  47   27   43 1
  48   28   44 1
  49   28   45 1
  50   28   46 1

#	End of record

