#	Name: ASD01811536
#	Creating user name:	WinNT
#	Creation time:	15. 06. 2019 19:26

#	Modifying user name:	WinNT
#	Modification time:	15. 06. 2019 19:26

#	Program:	/corina/corina34_cracker 3.40 0067  02.08.2006

@<TRIPOS>MOLECULE
ASD01811536
  35   37    0    0    0
SMALL
NO_CHARGES


@<TRIPOS>ATOM
   1 C1            -0.2110     1.4631    -0.0084 C.2     
   2 C2            -0.0912    -0.0095    -0.0067 C.ar    
   3 C3             1.1645    -0.6101    -0.1297 C.ar    
   4 C4             1.2778    -1.9858    -0.1279 C.ar    
   5 C5             0.1528    -2.7776    -0.0050 C.ar    
   6 C6            -1.1080    -2.1906     0.1186 C.ar    
   7 C7            -1.2296    -0.8029     0.1233 C.ar    
   8 O8             0.7882     2.1538    -0.0151 O.2     
   9 O9            -1.4284     2.0398    -0.0080 O.3     
  10 C10            0.2865    -4.2787    -0.0050 C.3     
  11 C11            2.3974     0.2458    -0.2652 C.3     
  12 S12           -3.8081    -2.8400    -0.6565 S.3     
  13 C13           -2.3113    -3.0403     0.2501 C.2     
  14 N14           -2.4341    -4.0543     1.0527 N.2     
  15 C15           -3.5791    -4.7095     1.0476 C.2     
  16 C16           -4.4951    -4.2228     0.1824 C.2     
  17 C17           -5.8776    -4.8000    -0.0074 C.3     
  18 C18           -3.8879    -5.9167     1.9256 C.3     
  19 C19           -5.4070    -6.1153     1.9417 C.3     
  20 O20           -5.9081    -6.0968     0.6019 O.3     
  21 H21            2.2506    -2.4451    -0.2232 H       
  22 H22           -2.2021    -0.3439     0.2228 H       
  23 H23           -1.4563     3.0064    -0.0091 H       
  24 H24            0.4975    -4.6246     1.0069 H       
  25 H25           -0.6436    -4.7262    -0.3554 H       
  26 H26            1.1021    -4.5708    -0.6664 H       
  27 H27            2.7284     0.5651     0.7230 H       
  28 H28            3.1887    -0.3303    -0.7449 H       
  29 H29            2.1669     1.1215    -0.8718 H       
  30 H30           -6.6148    -4.1529     0.4678 H       
  31 H31           -6.0964    -4.8884    -1.0716 H       
  32 H32           -3.4048    -6.8036     1.5156 H       
  33 H33           -3.5293    -5.7364     2.9390 H       
  34 H34           -5.6427    -7.0738     2.4040 H       
  35 H35           -5.8718    -5.3127     2.5143 H       
@<TRIPOS>BOND
   1    1    2 1
   2    1    8 2
   3    1    9 1
   4    2    3 ar
   5    2    7 ar
   6    3    4 ar
   7    3   11 1
   8    4    5 ar
   9    4   21 1
  10    5    6 ar
  11    5   10 1
  12    6    7 ar
  13    6   13 1
  14    7   22 1
  15    9   23 1
  16   10   24 1
  17   10   25 1
  18   10   26 1
  19   11   27 1
  20   11   28 1
  21   11   29 1
  22   12   13 1
  23   12   16 1
  24   13   14 2
  25   14   15 1
  26   15   16 2
  27   15   18 1
  28   16   17 1
  29   17   20 1
  30   17   30 1
  31   17   31 1
  32   18   19 1
  33   18   32 1
  34   18   33 1
  35   19   20 1
  36   19   34 1
  37   19   35 1

#	End of record

