#	Name: ASD01730051
#	Creating user name:	WinNT
#	Creation time:	15. 06. 2019 19:23

#	Modifying user name:	WinNT
#	Modification time:	15. 06. 2019 19:23

#	Program:	/corina/corina34_cracker 3.40 0067  02.08.2006

@<TRIPOS>MOLECULE
ASD01730051
  35   37    0    0    0
SMALL
NO_CHARGES


@<TRIPOS>ATOM
   1 C1            -0.0169     1.3930     0.0097 C.ar    
   2 C2             0.0021    -0.0041     0.0020 C.ar    
   3 C3             1.2252    -0.6782    -0.0133 C.ar    
   4 C4             2.4203     0.0474    -0.0208 C.ar    
   5 C5             2.3959     1.4255    -0.0132 C.ar    
   6 C6             1.1889     2.1043     0.0020 C.ar    
   7 C7            -1.3026     2.1158     0.0197 C.2     
   8 O8            -1.8275     2.4080     1.0768 O.2     
   9 N9            -1.8955     2.4524    -1.1428 N.am    
  10 F10            1.1749     3.4552     0.0094 F       
  11 F11           -1.1564    -0.6991     0.0098 F       
  12 C12            1.2560    -2.1537    -0.0210 C.2     
  13 O13            0.2160    -2.7835    -0.0141 O.2     
  14 N14            2.4370    -2.8029    -0.0358 N.am    
  15 S15           -3.9839     3.6304    -2.5700 S.3     
  16 C16           -3.1022     3.1307    -1.1334 C.2     
  17 N17           -3.7384     3.4849    -0.0709 N.2     
  18 C18           -4.9054     4.1410    -0.2236 C.ar    
  19 C19           -5.2472     4.3370    -1.5654 C.ar    
  20 C20           -5.7805     4.6296     0.7695 C.ar    
  21 C21           -6.9367     5.2797     0.4183 C.ar    
  22 C22           -7.2640     5.4670    -0.9164 C.ar    
  23 C23           -6.4245     4.9994    -1.9032 C.ar    
  24 C24           -8.5378     6.1820    -1.2869 C.3     
  25 F25           -9.2164     6.5590    -0.1230 F       
  26 F26           -8.2312     7.3219    -2.0378 F       
  27 F27           -9.3482     5.3290    -2.0437 F       
  28 H28            3.3661    -0.4739    -0.0323 H       
  29 H29            3.3232     1.9791    -0.0190 H       
  30 H30           -1.4768     2.2193    -1.9862 H       
  31 H31            3.2666    -2.3005    -0.0413 H       
  32 H32            2.4572    -3.7727    -0.0409 H       
  33 H33           -5.5388     4.4908     1.8129 H       
  34 H34           -7.5981     5.6486     1.1882 H       
  35 H35           -6.6804     5.1467    -2.9421 H       
@<TRIPOS>BOND
   1    1    2 ar
   2    1    6 ar
   3    1    7 1
   4    2    3 ar
   5    2   11 1
   6    3    4 ar
   7    3   12 1
   8    4    5 ar
   9    4   28 1
  10    5    6 ar
  11    5   29 1
  12    6   10 1
  13    7    8 2
  14    7    9 am
  15    9   16 1
  16    9   30 1
  17   12   13 2
  18   12   14 am
  19   14   31 1
  20   14   32 1
  21   15   16 1
  22   15   19 1
  23   16   17 2
  24   17   18 1
  25   18   19 ar
  26   18   20 ar
  27   19   23 ar
  28   20   21 ar
  29   20   33 1
  30   21   22 ar
  31   21   34 1
  32   22   23 ar
  33   22   24 1
  34   23   35 1
  35   24   25 1
  36   24   26 1
  37   24   27 1

#	End of record

