#	Name: ASD04880043
#	Creating user name:	WinNT
#	Creation time:	15. 06. 2019 20:52

#	Modifying user name:	WinNT
#	Modification time:	15. 06. 2019 20:52

#	Program:	/corina/corina34_cracker 3.40 0067  02.08.2006

@<TRIPOS>MOLECULE
ASD04880043
  45   47    0    0    0
SMALL
NO_CHARGES


@<TRIPOS>ATOM
   1 C1            -0.0144     1.2121     0.0087 C.2     
   2 O2            -0.1466     0.0032     0.0278 O.2     
   3 N3             1.2188     1.7547    -0.0261 N.am    
   4 N4             1.5037     3.1140    -0.1388 N.2     
   5 C5             2.7584     3.3896    -0.1508 C.2     
   6 C6             3.5586     2.1119    -0.0352 C.3     
   7 C7             2.4851     1.0091     0.0550 C.3     
   8 N8             3.2947     4.6594    -0.2540 N.pl3   
   9 C9             4.7482     4.8427    -0.2568 C.3     
  10 C10            2.4096     5.8219    -0.3605 C.3     
  11 C11            2.0937     6.3408     1.0186 C.ar    
  12 C12            2.9027     7.2997     1.5974 C.ar    
  13 C13            2.6114     7.7769     2.8668 C.ar    
  14 C14            1.5077     7.2897     3.5523 C.ar    
  15 C15            0.7021     6.3311     2.9693 C.ar    
  16 C16            0.9915     5.8610     1.7014 C.ar    
  17 O17            3.4058     8.7198     3.4384 O.3     
  18 C18            3.0454     9.1649     4.7476 C.3     
  19 C19           -1.2065     2.0862     0.0176 C.ar    
  20 C20           -1.0594     3.4709     0.1147 C.ar    
  21 C21           -2.1780     4.2819     0.1225 C.ar    
  22 C22           -3.4428     3.7222     0.0340 C.ar    
  23 C23           -3.5931     2.3507    -0.0624 C.ar    
  24 C24           -2.4834     1.5307    -0.0769 C.ar    
  25 F25           -2.0386     5.6223     0.2168 F       
  26 H26            4.1837     1.9711    -0.9169 H       
  27 H27            4.1675     2.1225     0.8688 H       
  28 H28            2.5572     0.4773     1.0037 H       
  29 H29            2.5773     0.3170    -0.7820 H       
  30 H30            5.1176     4.8011    -1.2815 H       
  31 H31            4.9931     5.8114     0.1787 H       
  32 H32            5.2153     4.0519     0.3302 H       
  33 H33            2.9037     6.6030    -0.9383 H       
  34 H34            1.4854     5.5304    -0.8595 H       
  35 H35            3.7613     7.6772     1.0620 H       
  36 H36            1.2791     7.6594     4.5409 H       
  37 H37           -0.1568     5.9512     3.5026 H       
  38 H38            0.3576     5.1149     1.2453 H       
  39 H39            3.0548     8.3185     5.4344 H       
  40 H40            3.7601     9.9152     5.0859 H       
  41 H41            2.0466     9.6004     4.7212 H       
  42 H42           -0.0739     3.9071     0.1840 H       
  43 H43           -4.3146     4.3595     0.0408 H       
  44 H44           -4.5814     1.9207    -0.1310 H       
  45 H45           -2.6029     0.4604    -0.1571 H       
@<TRIPOS>BOND
   1    1    2 2
   2    1    3 am
   3    1   19 1
   4    3    4 1
   5    3    7 1
   6    4    5 2
   7    5    6 1
   8    5    8 1
   9    6    7 1
  10    6   26 1
  11    6   27 1
  12    7   28 1
  13    7   29 1
  14    8    9 1
  15    8   10 1
  16    9   30 1
  17    9   31 1
  18    9   32 1
  19   10   11 1
  20   10   33 1
  21   10   34 1
  22   11   12 ar
  23   11   16 ar
  24   12   13 ar
  25   12   35 1
  26   13   14 ar
  27   13   17 1
  28   14   15 ar
  29   14   36 1
  30   15   16 ar
  31   15   37 1
  32   16   38 1
  33   17   18 1
  34   18   39 1
  35   18   40 1
  36   18   41 1
  37   19   20 ar
  38   19   24 ar
  39   20   21 ar
  40   20   42 1
  41   21   22 ar
  42   21   25 1
  43   22   23 ar
  44   22   43 1
  45   23   24 ar
  46   23   44 1
  47   24   45 1

#	End of record

