#	Name: ASD01915172
#	Creating user name:	WinNT
#	Creation time:	15. 06. 2019 20:05

#	Modifying user name:	WinNT
#	Modification time:	15. 06. 2019 20:05

#	Program:	/corina/corina34_cracker 3.40 0067  02.08.2006

@<TRIPOS>MOLECULE
ASD01915172
  44   46    0    0    0
SMALL
NO_CHARGES


@<TRIPOS>ATOM
   1 C1             0.1050     1.5393     0.6659 C.ar    
   2 C2             0.0624     0.1730     0.8738 C.ar    
   3 C3             1.2213    -0.5728     0.7892 C.ar    
   4 C4             2.4294     0.0496     0.4959 C.ar    
   5 C5             2.4708     1.4192     0.2843 C.ar    
   6 C6             1.3041     2.1597     0.3722 C.ar    
   7 N7             3.5940    -0.7226     0.4239 N.am    
   8 C8             4.8018    -0.1333    -0.1698 C.3     
   9 C9             4.9578     1.2851     0.3940 C.3     
  10 C10            3.7592     2.1258    -0.0454 C.3     
  11 C11            6.0062    -0.9625     0.1945 C.2     
  12 O12            6.4683    -0.9015     1.3142 O.2     
  13 N13            6.5699    -1.7719    -0.7240 N.am    
  14 C14            7.7378    -2.4769    -0.4126 C.ar    
  15 C15            7.9265    -3.7617    -0.9034 C.ar    
  16 C16            9.0818    -4.4552    -0.5942 C.ar    
  17 C17           10.0487    -3.8697     0.2039 C.ar    
  18 C18            9.8625    -2.5902     0.6942 C.ar    
  19 C19            8.7133    -1.8903     0.3835 C.ar    
  20 Cl20           9.3193    -6.0619    -1.2072 Cl      
  21 S21            3.6108    -2.2754     0.9989 S.o2    
  22 O22            4.9771    -2.5224     1.3013 O.2     
  23 O23            2.6218    -2.2820     2.0193 O.2     
  24 C24            3.0781    -3.2858    -0.4103 C.3     
  25 C25            2.8512    -4.7266     0.0519 C.3     
  26 H26           -0.8019     2.1223     0.7289 H       
  27 H27           -0.8760    -0.3102     1.1024 H       
  28 H28            1.1893    -1.6401     0.9513 H       
  29 H29            1.3315     3.2272     0.2103 H       
  30 H30            4.6968    -0.0900    -1.2539 H       
  31 H31            4.9951     1.2433     1.4825 H       
  32 H32            5.8762     1.7309     0.0121 H       
  33 H33            3.8125     2.2948    -1.1209 H       
  34 H34            3.7850     3.0865     0.4689 H       
  35 H35            6.1660    -1.8658    -1.6008 H       
  36 H36            7.1715    -4.2190    -1.5258 H       
  37 H37           10.9504    -4.4132     0.4446 H       
  38 H38           10.6187    -2.1361     1.3174 H       
  39 H39            8.5690    -0.8909     0.7667 H       
  40 H40            2.1494    -2.8837    -0.8153 H       
  41 H41            3.8482    -3.2686    -1.1814 H       
  42 H42            3.7799    -5.1287     0.4569 H       
  43 H43            2.0811    -4.7437     0.8231 H       
  44 H44            2.5311    -5.3337    -0.7949 H       
@<TRIPOS>BOND
   1    1    2 ar
   2    1    6 ar
   3    1   26 1
   4    2    3 ar
   5    2   27 1
   6    3    4 ar
   7    3   28 1
   8    4    5 ar
   9    4    7 1
  10    5    6 ar
  11    5   10 1
  12    6   29 1
  13    7    8 1
  14    7   21 am
  15    8    9 1
  16    8   11 1
  17    8   30 1
  18    9   10 1
  19    9   31 1
  20    9   32 1
  21   10   33 1
  22   10   34 1
  23   11   12 2
  24   11   13 am
  25   13   14 1
  26   13   35 1
  27   14   15 ar
  28   14   19 ar
  29   15   16 ar
  30   15   36 1
  31   16   17 ar
  32   16   20 1
  33   17   18 ar
  34   17   37 1
  35   18   19 ar
  36   18   38 1
  37   19   39 1
  38   21   22 2
  39   21   23 2
  40   21   24 1
  41   24   25 1
  42   24   40 1
  43   24   41 1
  44   25   42 1
  45   25   43 1
  46   25   44 1

#	End of record

