#	Name: ASD01948028
#	Creating user name:	WinNT
#	Creation time:	15. 06. 2019 20:13

#	Modifying user name:	WinNT
#	Modification time:	15. 06. 2019 20:13

#	Program:	/corina/corina34_cracker 3.40 0067  02.08.2006

@<TRIPOS>MOLECULE
ASD01948028
  56   59    0    0    0
SMALL
NO_CHARGES


@<TRIPOS>ATOM
   1 C1             0.0784    -0.1238     2.0619 C.3     
   2 C2             0.0737    -1.6231     2.3664 C.3     
   3 C3             1.2723    -0.9905     1.6565 C.3     
   4 S4            -1.0156     0.4660     0.7406 S.o2    
   5 O5            -0.3291     0.4861    -0.5034 O.2     
   6 O6            -2.3025    -0.1251     0.8577 O.2     
   7 N7            -1.2666     2.0642     1.0945 N.am    
   8 C8             0.8822     2.6905     0.1698 C.2     
   9 C9            -0.3921     3.0456     0.5829 C.2     
  10 C10           -0.8124     4.3805     0.4919 C.2     
  11 C11            0.0663     5.3313    -0.0155 C.2     
  12 C12            1.3364     4.9342    -0.4187 C.2     
  13 N13            1.7221     3.6444    -0.3232 N.am    
  14 N14            1.4693     1.4382     0.1882 N.pl3   
  15 C15            2.8319     1.5346    -0.3451 C.3     
  16 C16            3.0055     3.0223    -0.6901 C.3     
  17 O17            2.1140     5.7646    -0.8662 O.2     
  18 C18           -0.3530     6.7744    -0.1276 C.3     
  19 N19           -2.0860     4.7469     0.9017 N.pl3   
  20 C20           -3.2085     4.1943     0.2752 C.ar    
  21 C21           -4.4833     4.4682     0.7606 C.ar    
  22 C22           -5.5898     3.9203     0.1389 C.ar    
  23 C23           -5.4294     3.1005    -0.9647 C.ar    
  24 C24           -4.1628     2.8267    -1.4484 C.ar    
  25 C25           -3.0530     3.3762    -0.8353 C.ar    
  26 F26           -4.6395     5.2680     1.8381 F       
  27 Br27          -6.9452     2.3527    -1.8127 Br      
  28 C28            0.2690     0.8355     3.2386 C.3     
  29 C29            1.1788     1.9898     2.8133 C.3     
  30 C30            1.5882     2.7975     4.0465 C.3     
  31 O31            2.3411     3.9414     3.6384 O.3     
  32 O32            2.3465     1.4665     2.1773 O.3     
  33 H33            0.2064    -1.9262     3.4050 H       
  34 H34           -0.5868    -2.2552     1.7728 H       
  35 H35            1.4003    -1.2063     0.5957 H       
  36 H36            2.1935    -0.8773     2.2279 H       
  37 H37           -2.0150     2.3254     1.6535 H       
  38 H38            1.0464     0.6245     0.5044 H       
  39 H39            3.5583     1.2353     0.4105 H       
  40 H40            2.9353     0.9188    -1.2386 H       
  41 H41            3.1968     3.1469    -1.7559 H       
  42 H42            3.8176     3.4536    -0.1048 H       
  43 H43           -0.1791     7.2782     0.8232 H       
  44 H44            0.2294     7.2623    -0.9091 H       
  45 H45           -1.4126     6.8265    -0.3779 H       
  46 H46           -2.1984     5.3861     1.6225 H       
  47 H47           -6.5799     4.1317     0.5147 H       
  48 H48           -4.0413     2.1861    -2.3093 H       
  49 H49           -2.0650     3.1655    -1.2170 H       
  50 H50           -0.6993     1.2303     3.5460 H       
  51 H51            0.7251     0.3017     4.0723 H       
  52 H52            0.6444     2.6359     2.1168 H       
  53 H53            0.6955     3.1219     4.5812 H       
  54 H54            2.1984     2.1758     4.7018 H       
  55 H55            2.6345     4.5008     4.3705 H       
  56 H56            2.8721     0.8815     2.7399 H       
@<TRIPOS>BOND
   1    1    2 1
   2    1    3 1
   3    1    4 1
   4    1   28 1
   5    2    3 1
   6    2   33 1
   7    2   34 1
   8    3   35 1
   9    3   36 1
  10    4    5 2
  11    4    6 2
  12    4    7 am
  13    7    9 1
  14    7   37 1
  15    8    9 2
  16    8   13 1
  17    8   14 1
  18    9   10 1
  19   10   11 2
  20   10   19 1
  21   11   12 1
  22   11   18 1
  23   12   13 am
  24   12   17 2
  25   13   16 1
  26   14   15 1
  27   14   38 1
  28   15   16 1
  29   15   39 1
  30   15   40 1
  31   16   41 1
  32   16   42 1
  33   18   43 1
  34   18   44 1
  35   18   45 1
  36   19   20 1
  37   19   46 1
  38   20   21 ar
  39   20   25 ar
  40   21   22 ar
  41   21   26 1
  42   22   23 ar
  43   22   47 1
  44   23   24 ar
  45   23   27 1
  46   24   25 ar
  47   24   48 1
  48   25   49 1
  49   28   29 1
  50   28   50 1
  51   28   51 1
  52   29   30 1
  53   29   32 1
  54   29   52 1
  55   30   31 1
  56   30   53 1
  57   30   54 1
  58   31   55 1
  59   32   56 1

#	End of record

