#	Name: ASD08150927
#	Creating user name:	WinNT
#	Creation time:	15. 06. 2019 21:16

#	Modifying user name:	WinNT
#	Modification time:	15. 06. 2019 21:16

#	Program:	/corina/corina34_cracker 3.40 0067  02.08.2006

@<TRIPOS>MOLECULE
ASD08150927
  49   53    0    0    0
SMALL
NO_CHARGES


@<TRIPOS>ATOM
   1 N1            -0.2146     1.2405    -0.0478 N.3     
   2 C2            -0.3772    -0.2190    -0.1796 C.3     
   3 C3             1.0352    -0.8402    -0.1582 C.3     
   4 C4             1.8839     0.2459     0.5539 C.3     
   5 C5             1.2294     1.5482     0.0294 C.3     
   6 O6             1.0407    -2.0572     0.5907 O.3     
   7 N7             0.5986     0.7917    -2.6937 N.ar    
   8 C8             1.0027     0.5585    -3.9188 C.ar    
   9 C9             0.4330     1.2049    -5.0136 C.ar    
  10 C10           -0.5739     2.1081    -4.8236 C.ar    
  11 C11           -1.0047     2.3556    -3.5067 C.ar    
  12 C12           -2.0360     3.2716    -3.2356 C.ar    
  13 C13           -2.4306     3.4884    -1.9482 C.ar    
  14 C14           -1.8261     2.8141    -0.8914 C.ar    
  15 C15           -0.8123     1.9093    -1.1180 C.ar    
  16 C16           -0.3816     1.6632    -2.4396 C.ar    
  17 C17           -2.2860     3.0777     0.5193 C.3     
  18 C18           -1.4321     4.1878     1.1352 C.3     
  19 N19           -3.6909     3.4930     0.5053 N.pl3   
  20 N20           -6.6590     4.2636     0.7228 N.2     
  21 C21           -7.8473     4.3865     1.2389 C.2     
  22 N22           -7.8686     3.8504     2.4921 N.pl3   
  23 C23           -6.6108     3.3700     2.7553 C.ar    
  24 N24           -6.0370     2.7568     3.7852 N.ar    
  25 C25           -4.7685     2.4079     3.7365 C.ar    
  26 N26           -4.0086     2.6434     2.6826 N.ar    
  27 C27           -4.4949     3.2512     1.6054 C.ar    
  28 C28           -5.8444     3.6426     1.6095 C.ar    
  29 F29           -2.6348     3.9361    -4.2481 F       
  30 H30           -0.9641    -0.6036     0.6545 H       
  31 H31           -0.8712    -0.4534    -1.1226 H       
  32 H32            1.3975    -1.0088    -1.1723 H       
  33 H33            1.7872     0.1690     1.6369 H       
  34 H34            2.9293     0.1850     0.2515 H       
  35 H35            1.6177     1.7970    -0.9582 H       
  36 H36            1.4059     2.3685     0.7252 H       
  37 H37            1.9053    -2.4880     0.6349 H       
  38 H38            1.7982    -0.1530    -4.0837 H       
  39 H39            0.7873     0.9923    -6.0114 H       
  40 H40           -1.0266     2.6186    -5.6608 H       
  41 H41           -3.2232     4.1935    -1.7459 H       
  42 H42           -2.1819     2.1684     1.1113 H       
  43 H43           -1.5363     5.0971     0.5432 H       
  44 H44           -1.7648     4.3785     2.1555 H       
  45 H45           -0.3869     3.8788     1.1456 H       
  46 H46           -4.0574     3.9375    -0.2751 H       
  47 H47           -8.6919     4.8460     0.7471 H       
  48 H48           -8.6329     3.8153     3.0884 H       
  49 H49           -4.3330     1.9110     4.5908 H       
@<TRIPOS>BOND
   1    1    2 1
   2    1    5 1
   3    1   15 1
   4    2    3 1
   5    2   30 1
   6    2   31 1
   7    3    4 1
   8    3    6 1
   9    3   32 1
  10    4    5 1
  11    4   33 1
  12    4   34 1
  13    5   35 1
  14    5   36 1
  15    6   37 1
  16    7    8 ar
  17    7   16 ar
  18    8    9 ar
  19    8   38 1
  20    9   10 ar
  21    9   39 1
  22   10   11 ar
  23   10   40 1
  24   11   12 ar
  25   11   16 ar
  26   12   13 ar
  27   12   29 1
  28   13   14 ar
  29   13   41 1
  30   14   15 ar
  31   14   17 1
  32   15   16 ar
  33   17   18 1
  34   17   19 1
  35   17   42 1
  36   18   43 1
  37   18   44 1
  38   18   45 1
  39   19   27 1
  40   19   46 1
  41   20   21 2
  42   20   28 1
  43   21   22 1
  44   21   47 1
  45   22   23 1
  46   22   48 1
  47   23   24 ar
  48   23   28 ar
  49   24   25 ar
  50   25   26 ar
  51   25   49 1
  52   26   27 ar
  53   27   28 ar

#	End of record

