#	Name: ASD03331151
#	Creating user name:	WinNT
#	Creation time:	15. 06. 2019 20:38

#	Modifying user name:	WinNT
#	Modification time:	15. 06. 2019 20:38

#	Program:	/corina/corina34_cracker 3.40 0067  02.08.2006

@<TRIPOS>MOLECULE
ASD03331151
  54   57    0    0    0
SMALL
NO_CHARGES


@<TRIPOS>ATOM
   1 N1             0.0728     1.9000     0.5574 N.am    
   2 C2             0.0778     0.5707     1.1868 C.3     
   3 C3             0.5969    -0.4487     0.1671 C.3     
   4 N4             1.8972    -0.0011    -0.3494 N.3     
   5 C5             1.7740     1.2720    -1.0720 C.3     
   6 C6             1.3031     2.3619    -0.1031 C.3     
   7 C7            -1.0316     2.6722     0.5805 C.2     
   8 O8            -2.0695     2.2351     1.0390 O.2     
   9 N9            -0.9856     3.9288     0.0954 N.am    
  10 C10           -2.1621     4.6777    -0.0204 C.ar    
  11 C11           -2.1317     6.0539     0.1627 C.ar    
  12 C12           -3.2945     6.7902     0.0473 C.ar    
  13 C13           -4.4880     6.1584    -0.2502 C.ar    
  14 C14           -4.5216     4.7882    -0.4331 C.ar    
  15 C15           -3.3613     4.0469    -0.3242 C.ar    
  16 C16            2.5091    -1.0315    -1.1990 C.3     
  17 C17            3.7095    -0.4539    -1.9036 C.ar    
  18 C18            4.9570    -0.5269    -1.3143 C.ar    
  19 C19            6.0617     0.0050    -1.9634 C.ar    
  20 C20            5.9104     0.6094    -3.2035 C.ar    
  21 C21            4.6611     0.6797    -3.7882 C.ar    
  22 C22            3.5624     0.1437    -3.1416 C.ar    
  23 O23            7.2897    -0.0651    -1.3858 O.3     
  24 C24            7.4108    -0.7655    -0.2277 C.ar    
  25 C25            7.4329    -2.1527    -0.2535 C.ar    
  26 C26            7.5566    -2.8623     0.9252 C.ar    
  27 C27            7.6580    -2.1915     2.1300 C.ar    
  28 C28            7.6363    -0.8093     2.1585 C.ar    
  29 C29            7.5185    -0.0948     0.9822 C.ar    
  30 H30            0.7310     0.5811     2.0592 H       
  31 H31           -0.9354     0.3042     1.4876 H       
  32 H32            0.7117    -1.4194     0.6494 H       
  33 H33           -0.1122    -0.5328    -0.6564 H       
  34 H34            2.7425     1.5491    -1.4883 H       
  35 H35            1.0485     1.1639    -1.8782 H       
  36 H36            1.1000     3.2796    -0.6550 H       
  37 H37            2.0741     2.5444     0.6454 H       
  38 H38           -0.1370     4.3141    -0.1734 H       
  39 H39           -1.2000     6.5478     0.3954 H       
  40 H40           -3.2716     7.8605     0.1899 H       
  41 H41           -5.3960     6.7364    -0.3396 H       
  42 H42           -5.4553     4.2977    -0.6654 H       
  43 H43           -3.3874     2.9773    -0.4716 H       
  44 H44            2.8208    -1.8737    -0.5813 H       
  45 H45            1.7832    -1.3716    -1.9376 H       
  46 H46            5.0720    -0.9974    -0.3490 H       
  47 H47            6.7687     1.0246    -3.7108 H       
  48 H48            4.5428     1.1499    -4.7533 H       
  49 H49            2.5872     0.1955    -3.6026 H       
  50 H50            7.3530    -2.6771    -1.1942 H       
  51 H51            7.5738    -3.9420     0.9057 H       
  52 H52            7.7540    -2.7482     3.0505 H       
  53 H53            7.7153    -0.2878     3.1010 H       
  54 H54            7.5057     0.9849     1.0046 H       
@<TRIPOS>BOND
   1    1    2 1
   2    1    6 1
   3    1    7 am
   4    2    3 1
   5    2   30 1
   6    2   31 1
   7    3    4 1
   8    3   32 1
   9    3   33 1
  10    4    5 1
  11    4   16 1
  12    5    6 1
  13    5   34 1
  14    5   35 1
  15    6   36 1
  16    6   37 1
  17    7    8 2
  18    7    9 am
  19    9   10 1
  20    9   38 1
  21   10   11 ar
  22   10   15 ar
  23   11   12 ar
  24   11   39 1
  25   12   13 ar
  26   12   40 1
  27   13   14 ar
  28   13   41 1
  29   14   15 ar
  30   14   42 1
  31   15   43 1
  32   16   17 1
  33   16   44 1
  34   16   45 1
  35   17   18 ar
  36   17   22 ar
  37   18   19 ar
  38   18   46 1
  39   19   20 ar
  40   19   23 1
  41   20   21 ar
  42   20   47 1
  43   21   22 ar
  44   21   48 1
  45   22   49 1
  46   23   24 1
  47   24   25 ar
  48   24   29 ar
  49   25   26 ar
  50   25   50 1
  51   26   27 ar
  52   26   51 1
  53   27   28 ar
  54   27   52 1
  55   28   29 ar
  56   28   53 1
  57   29   54 1

#	End of record

