#	Name: ASD00844227
#	Creating user name:	WinNT
#	Creation time:	15. 06. 2019 18:49

#	Modifying user name:	WinNT
#	Modification time:	15. 06. 2019 18:49

#	Program:	/corina/corina34_cracker 3.40 0067  02.08.2006

@<TRIPOS>MOLECULE
ASD00844227
  98  103    0    0    0
SMALL
NO_CHARGES


@<TRIPOS>ATOM
   1 C1            -0.0056     1.3863     0.0350 C.ar    
   2 C2             0.0090    -0.0006     0.0178 C.ar    
   3 C3             1.2192    -0.6791    -0.0019 C.ar    
   4 C4             2.4059     0.0276    -0.0045 C.ar    
   5 C5             2.3886     1.4103     0.0131 C.ar    
   6 C6             1.1842     2.0886     0.0324 C.ar    
   7 C7             1.2388    -2.1859    -0.0201 C.3     
   8 C8             0.4942    -2.7117    -1.2288 C.2     
   9 N9             2.6177    -2.6804    -0.0112 N.am    
  10 C10            3.4640    -2.3347    -1.0016 C.2     
  11 N11            4.7595    -2.7012    -0.9396 N.am    
  12 O12            3.0587    -1.6922    -1.9509 O.2     
  13 C13            5.6738    -2.4348    -2.0604 C.3     
  14 C14            6.9203    -1.7300    -1.5148 C.3     
  15 N15            7.4924    -2.5291    -0.4230 N.3     
  16 C16            6.5577    -2.6362     0.7053 C.3     
  17 C17            5.2978    -3.3727     0.2531 C.3     
  18 C18            8.7825    -1.9780     0.0127 C.3     
  19 C19            9.2876    -2.7584     1.2294 C.3     
  20 C20           10.6596    -2.2198     1.6411 C.3     
  21 N21           11.5989    -2.3622     0.5214 N.3     
  22 C22           11.1591    -1.5832    -0.6431 C.3     
  23 C23            9.8019    -2.1028    -1.1230 C.3     
  24 C24           12.9599    -1.9836     0.9244 C.3     
  25 O25            0.7742    -2.5089    -2.3913 O.2     
  26 N26           -0.5342    -3.4457    -0.7725 N.am    
  27 C27            0.4663    -2.7401     1.1554 C.ar    
  28 C28           -0.5814    -3.4843     0.6182 C.ar    
  29 C29            0.6304    -2.6277     2.5127 C.ar    
  30 C30           -0.2647    -3.2677     3.3774 C.ar    
  31 C31           -1.3203    -4.0174     2.8446 C.ar    
  32 C32           -1.4736    -4.1238     1.4788 C.ar    
  33 F33           -2.1898    -4.6391     3.6709 F       
  34 C34           -0.9901    -5.8310    -2.0673 C.ar    
  35 C35            0.1893    -5.9865    -2.7815 C.ar    
  36 C36           -1.6659    -6.9410    -1.5971 C.ar    
  37 C37           -1.1690    -8.2077    -1.8362 C.ar    
  38 C38            0.0103    -8.3685    -2.5501 C.ar    
  39 C39            0.6897    -7.2568    -3.0232 C.ar    
  40 O40            0.4983    -9.6148    -2.7855 O.3     
  41 O41            0.8531    -4.8946    -3.2440 O.3     
  42 C42            2.0606    -5.1294    -3.9713 C.3     
  43 C43           -0.2541   -10.7143    -2.2688 C.3     
  44 C44           13.9461    -2.3770    -0.1772 C.3     
  45 C45           15.3635    -1.9827     0.2426 C.3     
  46 S46           -1.6229    -4.2168    -1.7535 S.o2    
  47 O47           -2.8038    -4.3916    -0.9827 O.2     
  48 O48           -1.6009    -3.5285    -2.9964 O.2     
  49 O49           -1.1599    -0.6937     0.0208 O.3     
  50 C50           -2.3672     0.0705     0.0421 C.3     
  51 C51           -3.5697    -0.8755     0.0423 C.3     
  52 F52           -3.5397    -1.6681    -1.1101 F       
  53 F53           -3.5173    -1.6961     1.1742 F       
  54 C54           -0.1021    -3.1570     4.7958 C.1     
  55 N55            0.0270    -3.0692     5.9211 N.1     
  56 H56           -0.9463     1.9168     0.0459 H       
  57 H57            3.3481    -0.5000    -0.0199 H       
  58 H58            3.3176     1.9611     0.0118 H       
  59 H59            1.1734     3.1685     0.0461 H       
  60 H60            2.9217    -3.2566     0.7074 H       
  61 H61            5.9612    -3.3756    -2.5300 H       
  62 H62            5.1807    -1.7934    -2.7908 H       
  63 H63            7.6562    -1.6236    -2.3119 H       
  64 H64            6.6456    -0.7444    -1.1390 H       
  65 H65            7.0306    -3.1870     1.5183 H       
  66 H66            6.2881    -1.6380     1.0502 H       
  67 H67            4.5563    -3.3541     1.0518 H       
  68 H68            5.5462    -4.4044     0.0043 H       
  69 H69            8.6590    -0.9282     0.2788 H       
  70 H70            8.5867    -2.6382     2.0554 H       
  71 H71            9.3729    -3.8147     0.9745 H       
  72 H72           10.5710    -1.1670     1.9091 H       
  73 H73           11.0285    -2.7828     2.4984 H       
  74 H74           11.0681    -0.5334    -0.3644 H       
  75 H75           11.8906    -1.6839    -1.4448 H       
  76 H76            9.8953    -3.1488    -1.4149 H       
  77 H77            9.4685    -1.5142    -1.9777 H       
  78 H78           13.0049    -0.9064     1.0847 H       
  79 H79           13.2221    -2.4997     1.8480 H       
  80 H80            1.4484    -2.0471     2.9130 H       
  81 H81           -2.2896    -4.7036     1.0732 H       
  82 H82           -2.5838    -6.8180    -1.0414 H       
  83 H83           -1.6986    -9.0736    -1.4671 H       
  84 H84            1.6074    -7.3798    -3.5792 H       
  85 H85            2.4886    -4.1764    -4.2823 H       
  86 H86            2.7714    -5.6565    -3.3349 H       
  87 H87            1.8429    -5.7344    -4.8514 H       
  88 H88           -1.2546   -10.7051    -2.7012 H       
  89 H89            0.2445   -11.6488    -2.5265 H       
  90 H90           -0.3260   -10.6279    -1.1846 H       
  91 H91           13.9010    -3.4542    -0.3375 H       
  92 H92           13.6839    -1.8609    -1.1008 H       
  93 H93           15.6257    -2.4987     1.1662 H       
  94 H94           16.0661    -2.2629    -0.5422 H       
  95 H95           15.4086    -0.9055     0.4029 H       
  96 H96           -2.3906     0.6880     0.9400 H       
  97 H97           -2.4081     0.7099    -0.8397 H       
  98 H98           -4.4906    -0.2926     0.0586 H       
@<TRIPOS>BOND
   1    1    2 ar
   2    1    6 ar
   3    1   56 1
   4    2    3 ar
   5    2   49 1
   6    3    4 ar
   7    3    7 1
   8    4    5 ar
   9    4   57 1
  10    5    6 ar
  11    5   58 1
  12    6   59 1
  13    7    8 1
  14    7    9 1
  15    7   27 1
  16    8   25 2
  17    8   26 am
  18    9   10 am
  19    9   60 1
  20   10   11 am
  21   10   12 2
  22   11   13 1
  23   11   17 1
  24   13   14 1
  25   13   61 1
  26   13   62 1
  27   14   15 1
  28   14   63 1
  29   14   64 1
  30   15   16 1
  31   15   18 1
  32   16   17 1
  33   16   65 1
  34   16   66 1
  35   17   67 1
  36   17   68 1
  37   18   19 1
  38   18   23 1
  39   18   69 1
  40   19   20 1
  41   19   70 1
  42   19   71 1
  43   20   21 1
  44   20   72 1
  45   20   73 1
  46   21   22 1
  47   21   24 1
  48   22   23 1
  49   22   74 1
  50   22   75 1
  51   23   76 1
  52   23   77 1
  53   24   44 1
  54   24   78 1
  55   24   79 1
  56   26   46 am
  57   26   28 1
  58   27   28 ar
  59   27   29 ar
  60   28   32 ar
  61   29   30 ar
  62   29   80 1
  63   30   31 ar
  64   30   54 1
  65   31   32 ar
  66   31   33 1
  67   32   81 1
  68   34   35 ar
  69   34   36 ar
  70   34   46 1
  71   35   41 1
  72   35   39 ar
  73   36   37 ar
  74   36   82 1
  75   37   38 ar
  76   37   83 1
  77   38   39 ar
  78   38   40 1
  79   39   84 1
  80   40   43 1
  81   41   42 1
  82   42   85 1
  83   42   86 1
  84   42   87 1
  85   43   88 1
  86   43   89 1
  87   43   90 1
  88   44   45 1
  89   44   91 1
  90   44   92 1
  91   45   93 1
  92   45   94 1
  93   45   95 1
  94   46   47 2
  95   46   48 2
  96   49   50 1
  97   50   51 1
  98   50   96 1
  99   50   97 1
 100   51   52 1
 101   51   53 1
 102   51   98 1
 103   54   55 3

#	End of record

