#	Name: ASD01883227
#	Creating user name:	WinNT
#	Creation time:	15. 06. 2019 19:46

#	Modifying user name:	WinNT
#	Modification time:	15. 06. 2019 19:46

#	Program:	/corina/corina34_cracker 3.40 0067  02.08.2006

@<TRIPOS>MOLECULE
ASD01883227
  50   51    0    0    0
SMALL
NO_CHARGES


@<TRIPOS>ATOM
   1 N1            -0.0021     1.3163     0.0486 N.am    
   2 C2            -0.0001    -0.0086    -0.1881 C.2     
   3 C3            -1.2212    -0.7271    -0.1950 C.2     
   4 C4            -2.4168    -0.0280     0.0487 C.2     
   5 C5            -2.3525     1.3586     0.2898 C.2     
   6 C6            -1.1565     1.9896     0.2888 C.2     
   7 O7             1.0511    -0.5899    -0.3968 O.2     
   8 C8            -1.2376    -2.1369    -0.4455 C.1     
   9 N9            -1.2506    -3.2553    -0.6442 N.1     
  10 C10            1.2682     2.0460     0.0530 C.3     
  11 C11            1.5705     2.5524    -1.3588 C.3     
  12 C12            2.8972     3.3145    -1.3541 C.3     
  13 C13            4.0373     2.3516    -1.0167 C.3     
  14 C14            3.1385     3.9266    -2.7354 C.3     
  15 C15           -3.7149    -0.7337     0.0513 C.ar    
  16 C16           -4.4625    -0.8202     1.2285 C.ar    
  17 C17           -5.6721    -1.4782     1.2274 C.ar    
  18 C18           -6.1500    -2.0564     0.0559 C.ar    
  19 C19           -5.4081    -1.9726    -1.1178 C.ar    
  20 C20           -4.2003    -1.3110    -1.1248 C.ar    
  21 N21           -7.3764    -2.7225     0.0583 N.am    
  22 C22           -8.3895    -2.2665     0.8211 C.2     
  23 C23           -9.7444    -2.9219     0.7448 C.3     
  24 N24          -10.6679    -2.2459     1.6657 N.3     
  25 C25          -12.0018    -2.8595     1.6182 C.3     
  26 O26           -8.2109    -1.3285     1.5690 O.2     
  27 H27           -3.2576     1.9166     0.4790 H       
  28 H28           -1.1196     3.0528     0.4749 H       
  29 H29            1.1983     2.8930     0.7356 H       
  30 H30            2.0680     1.3813     0.3796 H       
  31 H31            1.6405     1.7054    -2.0413 H       
  32 H32            0.7708     3.2171    -1.6853 H       
  33 H33            2.8581     4.1073    -0.6071 H       
  34 H34            4.0764     1.5588    -1.7637 H       
  35 H35            4.9824     2.8946    -1.0133 H       
  36 H36            3.8654     1.9155    -0.0326 H       
  37 H37            2.3263     4.6126    -2.9757 H       
  38 H38            4.0837     4.4696    -2.7320 H       
  39 H39            3.1776     3.1338    -3.4823 H       
  40 H40           -4.0918    -0.3717     2.1384 H       
  41 H41           -6.2503    -1.5457     2.1371 H       
  42 H42           -5.7817    -2.4229    -2.0255 H       
  43 H43           -3.6249    -1.2459    -2.0365 H       
  44 H44           -7.4995    -3.5138    -0.4891 H       
  45 H45          -10.1271    -2.8477    -0.2731 H       
  46 H46           -9.6563    -3.9718     1.0243 H       
  47 H47          -10.3038    -2.2447     2.6068 H       
  48 H48          -12.4002    -2.7848     0.6063 H       
  49 H49          -11.9294    -3.9089     1.9036 H       
  50 H50          -12.6656    -2.3399     2.3092 H       
@<TRIPOS>BOND
   1    1    2 am
   2    1   10 1
   3    1    6 1
   4    2    3 1
   5    2    7 2
   6    3    4 2
   7    3    8 1
   8    4    5 1
   9    4   15 1
  10    5    6 2
  11    5   27 1
  12    6   28 1
  13    8    9 3
  14   10   11 1
  15   10   29 1
  16   10   30 1
  17   11   12 1
  18   11   31 1
  19   11   32 1
  20   12   13 1
  21   12   14 1
  22   12   33 1
  23   13   34 1
  24   13   35 1
  25   13   36 1
  26   14   37 1
  27   14   38 1
  28   14   39 1
  29   15   16 ar
  30   15   20 ar
  31   16   17 ar
  32   16   40 1
  33   17   18 ar
  34   17   41 1
  35   18   19 ar
  36   18   21 1
  37   19   20 ar
  38   19   42 1
  39   20   43 1
  40   21   22 am
  41   21   44 1
  42   22   23 1
  43   22   26 2
  44   23   24 1
  45   23   45 1
  46   23   46 1
  47   24   25 1
  48   24   47 1
  49   25   48 1
  50   25   49 1
  51   25   50 1

#	End of record

