#	Name: ASD02030611
#	Creating user name:	WinNT
#	Creation time:	15. 06. 2019 20:15

#	Modifying user name:	WinNT
#	Modification time:	15. 06. 2019 20:15

#	Program:	/corina/corina34_cracker 3.40 0067  02.08.2006

@<TRIPOS>MOLECULE
ASD02030611
  66   70    0    0    0
SMALL
NO_CHARGES


@<TRIPOS>ATOM
   1 C1            -0.0276     1.3805     0.0123 C.ar    
   2 C2            -0.0151     0.0024     0.0110 C.ar    
   3 C3             1.1987    -0.6737     0.0055 C.ar    
   4 C4             2.3839     0.0444     0.0070 C.ar    
   5 C5             2.3672     1.4328     0.0143 C.ar    
   6 C6             1.1614     2.0986     0.0084 C.ar    
   7 C7             1.0721     3.6041    -0.0172 C.3     
   8 C8             3.6937     2.1456     0.0442 C.3     
   9 C9             3.5472     3.5880    -0.4377 C.3     
  10 N10            2.3922     4.1822     0.2553 N.am    
  11 C11            0.5904     4.0622    -1.3953 C.3     
  12 O12            1.4493     3.5246    -2.4030 O.3     
  13 C13            1.1583     3.8383    -3.6938 C.ar    
  14 C14            2.5419     5.2168     1.1060 C.2     
  15 O15            3.6544     5.6252     1.3765 O.2     
  16 C16            1.3530     5.8550     1.7103 C.ar    
  17 C17            0.5655     4.4763    -6.3215 C.ar    
  18 C18           -0.2236     4.9697    -5.2931 C.ar    
  19 C19            0.0720     4.6511    -3.9819 C.ar    
  20 C20            1.9511     3.3500    -4.7217 C.ar    
  21 C21            1.6554     3.6685    -6.0329 C.ar    
  22 C22            1.4085     6.3459     3.0153 C.ar    
  23 C23            0.1720     5.9741     0.9756 C.ar    
  24 C24           -0.9339     6.5709     1.5445 C.ar    
  25 C25           -0.8749     7.0517     2.8405 C.ar    
  26 C26            0.2945     6.9413     3.5735 C.ar    
  27 Cl27           0.3606     7.5529     5.1968 Cl      
  28 N28            1.2242    -2.0702    -0.0012 N.3     
  29 O29            0.2745     4.7899    -7.6123 O.3     
  30 C30            1.1294     4.2470    -8.6204 C.3     
  31 C31           -0.1369    -2.6214    -0.0011 C.3     
  32 C32           -0.0726    -4.1427    -0.1552 C.3     
  33 C33            0.7377    -4.7342     1.0015 C.3     
  34 C34            2.1349    -4.1079     1.0083 C.3     
  35 C35            2.0067    -2.5877     1.1286 C.3     
  36 H36           -0.9706     1.9070     0.0119 H       
  37 H37           -0.9437    -0.5490     0.0147 H       
  38 H38            3.3281    -0.4800     0.0029 H       
  39 H39            0.3658     3.9385     0.7427 H       
  40 H40            4.0777     2.1458     1.0643 H       
  41 H41            4.3970     1.6212    -0.6027 H       
  42 H42            4.4499     4.1501    -0.1985 H       
  43 H43            3.3782     3.6016    -1.5145 H       
  44 H44           -0.4278     3.7097    -1.5599 H       
  45 H45            0.6104     5.1509    -1.4438 H       
  46 H46           -1.0723     5.5987    -5.5178 H       
  47 H47           -0.5429     5.0346    -3.1812 H       
  48 H48            2.7997     2.7210    -4.4970 H       
  49 H49            2.2699     3.2843    -6.8337 H       
  50 H50            2.3204     6.2601     3.5876 H       
  51 H51            0.1243     5.6001    -0.0364 H       
  52 H52           -1.8480     6.6635     0.9767 H       
  53 H53           -1.7435     7.5187     3.2809 H       
  54 H54            2.1496     4.5946    -8.4574 H       
  55 H55            1.1041     3.1585    -8.5706 H       
  56 H56            0.7867     4.5740    -9.6021 H       
  57 H57           -0.6297    -2.3721     0.9386 H       
  58 H58           -0.7011    -2.1958    -0.8310 H       
  59 H59           -1.0823    -4.5530    -0.1395 H       
  60 H60            0.4077    -4.3926    -1.1012 H       
  61 H61            0.2369    -4.5177     1.9452 H       
  62 H62            0.8227    -5.8131     0.8724 H       
  63 H63            2.7024    -4.4934     1.8553 H       
  64 H64            2.6500    -4.3573     0.0806 H       
  65 H65            2.9994    -2.1376     1.1193 H       
  66 H66            1.5038    -2.3385     2.0630 H       
@<TRIPOS>BOND
   1    1    2 ar
   2    1    6 ar
   3    1   36 1
   4    2    3 ar
   5    2   37 1
   6    3    4 ar
   7    3   28 1
   8    4    5 ar
   9    4   38 1
  10    5    6 ar
  11    5    8 1
  12    6    7 1
  13    7   10 1
  14    7   11 1
  15    7   39 1
  16    8    9 1
  17    8   40 1
  18    8   41 1
  19    9   10 1
  20    9   42 1
  21    9   43 1
  22   10   14 am
  23   11   12 1
  24   11   44 1
  25   11   45 1
  26   12   13 1
  27   13   20 ar
  28   13   19 ar
  29   14   15 2
  30   14   16 1
  31   16   23 ar
  32   16   22 ar
  33   17   18 ar
  34   17   21 ar
  35   17   29 1
  36   18   19 ar
  37   18   46 1
  38   19   47 1
  39   20   21 ar
  40   20   48 1
  41   21   49 1
  42   22   26 ar
  43   22   50 1
  44   23   24 ar
  45   23   51 1
  46   24   25 ar
  47   24   52 1
  48   25   26 ar
  49   25   53 1
  50   26   27 1
  51   28   31 1
  52   28   35 1
  53   29   30 1
  54   30   54 1
  55   30   55 1
  56   30   56 1
  57   31   32 1
  58   31   57 1
  59   31   58 1
  60   32   33 1
  61   32   59 1
  62   32   60 1
  63   33   34 1
  64   33   61 1
  65   33   62 1
  66   34   35 1
  67   34   63 1
  68   34   64 1
  69   35   65 1
  70   35   66 1

#	End of record

