#	Name: ASD00190010
#	Creating user name:	WinNT
#	Creation time:	15. 06. 2019 18:33

#	Modifying user name:	WinNT
#	Modification time:	15. 06. 2019 18:33

#	Program:	/corina/corina34_cracker 3.40 0067  02.08.2006

@<TRIPOS>MOLECULE
ASD00190010
  45   50    0    0    0
SMALL
NO_CHARGES


@<TRIPOS>ATOM
   1 C1             0.1387     1.4627     1.1616 C.ar    
   2 C2             0.1853     0.0865     1.3524 C.ar    
   3 C3             1.3376    -0.6123     1.1457 C.ar    
   4 C4             2.4979     0.0610     0.7336 C.ar    
   5 C5             2.4439     1.4614     0.5407 C.ar    
   6 C6             1.2497     2.1488     0.7609 C.ar    
   7 N7             3.6431    -0.6051     0.5244 N.ar    
   8 C8             4.7515    -0.0102     0.1384 C.ar    
   9 C9             4.8119     1.3742    -0.0830 C.ar    
  10 C10            3.6626     2.1522     0.1103 C.ar    
  11 N11            5.8039     2.2467    -0.4789 N.pl3   
  12 C12            5.2477     3.4976    -0.5147 C.2     
  13 N13            3.9788     3.4220    -0.1628 N.2     
  14 N14            5.8935    -0.7738    -0.0550 N.pl3   
  15 C15            5.8282    -2.1672     0.0446 C.ar    
  16 C16            5.9519     4.7273    -0.8859 C.2     
  17 C17            7.2465     4.8370    -1.2503 C.2     
  18 C18            7.5752     6.2265    -1.5450 C.2     
  19 C19            6.5125     7.0104    -1.3756 C.2     
  20 C20            5.3684     6.1218    -0.9420 C.3     
  21 C21            4.6816    -2.8313    -0.3550 C.ar    
  22 C22            4.6175    -4.2168    -0.2561 C.ar    
  23 C23            5.7225    -4.9251     0.2503 C.ar    
  24 C24            6.8713    -4.2374     0.6482 C.ar    
  25 C25            6.9211    -2.8775     0.5406 C.ar    
  26 N26            3.6459    -5.1437    -0.5616 N.pl3   
  27 C27            4.0960    -6.4036    -0.2677 C.2     
  28 C28            5.3423    -6.3403     0.2257 C.2     
  29 H29           -0.7867     1.9943     1.3276 H       
  30 H30           -0.7046    -0.4369     1.6695 H       
  31 H31            1.3575    -1.6812     1.2990 H       
  32 H32            1.2041     3.2179     0.6152 H       
  33 H33            6.7221     2.0176    -0.6918 H       
  34 H34            6.7373    -0.3412    -0.2593 H       
  35 H35            7.9410     4.0123    -1.3142 H       
  36 H36            8.5489     6.5731    -1.8582 H       
  37 H37            6.4739     8.0795    -1.5234 H       
  38 H38            4.5565     6.1691    -1.6677 H       
  39 H39            5.0126     6.4175     0.0449 H       
  40 H40            3.8401    -2.2757    -0.7417 H       
  41 H41            7.7196    -4.7808     1.0374 H       
  42 H42            7.8103    -2.3473     0.8484 H       
  43 H43            2.7730    -4.9354    -0.9299 H       
  44 H44            3.5314    -7.3130    -0.4114 H       
  45 H45            5.9502    -7.1743     0.5440 H       
@<TRIPOS>BOND
   1    1    2 ar
   2    1    6 ar
   3    1   29 1
   4    2    3 ar
   5    2   30 1
   6    3    4 ar
   7    3   31 1
   8    4    5 ar
   9    4    7 ar
  10    5    6 ar
  11    5   10 ar
  12    6   32 1
  13    7    8 ar
  14    8    9 ar
  15    8   14 1
  16    9   10 ar
  17    9   11 1
  18   10   13 1
  19   11   12 1
  20   11   33 1
  21   12   13 2
  22   12   16 1
  23   14   15 1
  24   14   34 1
  25   15   21 ar
  26   15   25 ar
  27   16   17 2
  28   16   20 1
  29   17   18 1
  30   17   35 1
  31   18   19 2
  32   18   36 1
  33   19   20 1
  34   19   37 1
  35   20   38 1
  36   20   39 1
  37   21   22 ar
  38   21   40 1
  39   22   23 ar
  40   22   26 1
  41   23   24 ar
  42   23   28 1
  43   24   25 ar
  44   24   41 1
  45   25   42 1
  46   26   27 1
  47   26   43 1
  48   27   28 2
  49   27   44 1
  50   28   45 1

#	End of record

