#	Name: ASD03331463
#	Creating user name:	WinNT
#	Creation time:	15. 06. 2019 20:39

#	Modifying user name:	WinNT
#	Modification time:	15. 06. 2019 20:39

#	Program:	/corina/corina34_cracker 3.40 0067  02.08.2006

@<TRIPOS>MOLECULE
ASD03331463
  37   39    0    0    0
SMALL
NO_CHARGES


@<TRIPOS>ATOM
   1 N1            -0.0132     1.3333    -0.1529 N.pl3   
   2 C2             0.0408    -0.0120    -0.2486 C.2     
   3 C3             1.3396    -0.4100    -0.0094 C.2     
   4 C4             2.0940     0.7665     0.2414 C.2     
   5 C5             1.2391     1.8166     0.1465 C.2     
   6 C6             1.8468    -1.7912    -0.0129 C.2     
   7 O7             1.0916    -2.7153    -0.2433 O.2     
   8 O8             3.1488    -2.0316     0.2394 O.3     
   9 C9            -1.1186    -0.9225    -0.5618 C.3     
  10 O10           -1.2116    -1.1058    -1.9760 O.3     
  11 C11            1.5942     3.2399     0.3337 C.ar    
  12 C12            2.7041     3.7777    -0.3220 C.ar    
  13 C13            3.0299     5.1072    -0.1434 C.ar    
  14 C14            2.2590     5.9064     0.6840 C.ar    
  15 C15            1.1579     5.3783     1.3362 C.ar    
  16 C16            0.8187     4.0523     1.1612 C.ar    
  17 Cl17           2.6754     7.5772     0.9048 Cl      
  18 Cl18           3.6719     2.7764    -1.3585 Cl      
  19 C19           -1.1622     2.1145    -0.3359 C.ar    
  20 C20           -2.2145     2.0253     0.5655 C.ar    
  21 C21           -3.3458     2.7961     0.3831 C.ar    
  22 C22           -3.4311     3.6570    -0.6971 C.ar    
  23 C23           -2.3837     3.7478    -1.5969 C.ar    
  24 C24           -1.2479     2.9832    -1.4156 C.ar    
  25 Cl25          -4.8547     4.6242    -0.9240 Cl      
  26 H26            3.1493     0.8164     0.4657 H       
  27 H27            3.4353    -2.9551     0.2261 H       
  28 H28           -0.9631    -1.8877    -0.0798 H       
  29 H29           -2.0415    -0.4760    -0.1918 H       
  30 H30           -1.9377    -1.6823    -2.2509 H       
  31 H31            3.8877     5.5247    -0.6495 H       
  32 H32            0.5608     6.0066     1.9805 H       
  33 H33           -0.0432     3.6431     1.6672 H       
  34 H34           -2.1486     1.3533     1.4085 H       
  35 H35           -4.1648     2.7268     1.0837 H       
  36 H36           -2.4526     4.4203    -2.4391 H       
  37 H37           -0.4288     3.0577    -2.1156 H       
@<TRIPOS>BOND
   1    1    2 1
   2    1    5 1
   3    1   19 1
   4    2    3 2
   5    2    9 1
   6    3    4 1
   7    3    6 1
   8    4    5 2
   9    4   26 1
  10    5   11 1
  11    6    7 2
  12    6    8 1
  13    8   27 1
  14    9   10 1
  15    9   28 1
  16    9   29 1
  17   10   30 1
  18   11   12 ar
  19   11   16 ar
  20   12   13 ar
  21   12   18 1
  22   13   14 ar
  23   13   31 1
  24   14   15 ar
  25   14   17 1
  26   15   16 ar
  27   15   32 1
  28   16   33 1
  29   19   20 ar
  30   19   24 ar
  31   20   21 ar
  32   20   34 1
  33   21   22 ar
  34   21   35 1
  35   22   23 ar
  36   22   25 1
  37   23   24 ar
  38   23   36 1
  39   24   37 1

#	End of record

