#	Name: ASD02562059
#	Creating user name:	WinNT
#	Creation time:	15. 06. 2019 20:25

#	Modifying user name:	WinNT
#	Modification time:	15. 06. 2019 20:25

#	Program:	/corina/corina34_cracker 3.40 0067  02.08.2006

@<TRIPOS>MOLECULE
ASD02562059
  43   46    0    0    0
SMALL
NO_CHARGES


@<TRIPOS>ATOM
   1 C1             0.1544     1.3719     1.2123 C.2     
   2 C2             0.1693    -0.0334     1.1601 C.2     
   3 C3             1.2933    -0.6902     0.8106 C.2     
   4 N4             2.4355    -0.0013     0.5018 N.pl3   
   5 C5             2.4510     1.3742     0.5437 C.2     
   6 C6             1.2796     2.0714     0.9083 C.2     
   7 C7             3.6844    -0.4110     0.1248 C.2     
   8 C8             4.4403     0.7280    -0.0565 C.2     
   9 N9             3.6600     1.7923     0.2063 N.2     
  10 N10            4.1121    -1.7286    -0.0436 N.3     
  11 C11            5.8631     0.7722    -0.4682 C.ar    
  12 C12            2.9886    -2.6668     0.0818 C.3     
  13 C13            3.3293    -3.9702    -0.6435 C.3     
  14 C14            2.1592    -4.9473    -0.5129 C.3     
  15 C15            1.9012    -5.2393     0.9666 C.3     
  16 C16            1.5606    -3.9359     1.6919 C.3     
  17 C17            2.7307    -2.9588     1.5613 C.3     
  18 C18            6.5118     1.9990    -0.6155 C.ar    
  19 C19            7.8379     2.0337    -0.9995 C.ar    
  20 C20            8.5228     0.8547    -1.2380 C.ar    
  21 C21            7.8833    -0.3651    -1.0937 C.ar    
  22 C22            6.5605    -0.4121    -0.7045 C.ar    
  23 Cl23           5.6535     3.4782    -0.3171 Cl      
  24 Cl24          10.1896     0.9054    -1.7204 Cl      
  25 H25           -0.7496     1.8941     1.4889 H       
  26 H26           -0.7246    -0.5893     1.4016 H       
  27 H27            1.2931    -1.7696     0.7742 H       
  28 H28            1.2770     3.1508     0.9452 H       
  29 H29            4.5838    -1.8455    -0.9278 H       
  30 H30            2.0961    -2.2263    -0.3626 H       
  31 H31            3.5130    -3.7622    -1.6976 H       
  32 H32            4.2218    -4.4107    -0.1991 H       
  33 H33            1.2666    -4.5068    -0.9573 H       
  34 H34            2.4019    -5.8759    -1.0296 H       
  35 H35            1.0676    -5.9355     1.0596 H       
  36 H36            2.7938    -5.6798     1.4110 H       
  37 H37            0.6681    -3.4954     1.2475 H       
  38 H38            1.3768    -4.1440     2.7459 H       
  39 H39            3.6232    -3.3993     2.0057 H       
  40 H40            2.4880    -2.0303     2.0780 H       
  41 H41            8.3412     2.9823    -1.1142 H       
  42 H42            8.4226    -1.2817    -1.2814 H       
  43 H43            6.0633    -1.3642    -0.5920 H       
@<TRIPOS>BOND
   1    1    2 1
   2    1    6 2
   3    1   25 1
   4    2    3 2
   5    2   26 1
   6    3    4 1
   7    3   27 1
   8    4    5 1
   9    4    7 1
  10    5    6 1
  11    5    9 2
  12    6   28 1
  13    7    8 2
  14    7   10 1
  15    8    9 1
  16    8   11 1
  17   10   12 1
  18   10   29 1
  19   11   18 ar
  20   11   22 ar
  21   12   13 1
  22   12   17 1
  23   12   30 1
  24   13   14 1
  25   13   31 1
  26   13   32 1
  27   14   15 1
  28   14   33 1
  29   14   34 1
  30   15   16 1
  31   15   35 1
  32   15   36 1
  33   16   17 1
  34   16   37 1
  35   16   38 1
  36   17   39 1
  37   17   40 1
  38   18   19 ar
  39   18   23 1
  40   19   20 ar
  41   19   41 1
  42   20   21 ar
  43   20   24 1
  44   21   22 ar
  45   21   42 1
  46   22   43 1

#	End of record

