#	Name: ASD02448019
#	Creating user name:	WinNT
#	Creation time:	15. 06. 2019 20:21

#	Modifying user name:	WinNT
#	Modification time:	15. 06. 2019 20:21

#	Program:	/corina/corina34_cracker 3.40 0067  02.08.2006

@<TRIPOS>MOLECULE
ASD02448019
  78   84    0    0    0
SMALL
NO_CHARGES


@<TRIPOS>ATOM
   1 C1             3.2614    -7.4553    -1.1321 C.ar    
   2 C2             2.7607    -6.3419    -0.4877 C.ar    
   3 C3             2.1816    -5.3162    -1.2224 C.ar    
   4 C4             2.1060    -5.4096    -2.6055 C.ar    
   5 C5             2.6065    -6.5225    -3.2507 C.ar    
   6 C6             3.1863    -7.5489    -2.5160 C.ar    
   7 N7             3.6938    -8.6762    -3.1691 N.am    
   8 C8             4.7438    -9.5920    -2.7047 C.3     
   9 C9             4.9970   -10.6781    -3.6999 C.2     
  10 N10            4.2385   -10.6166    -4.8034 N.am    
  11 S11            3.2403    -9.2932    -4.6513 S.o2    
  12 O12            5.8245   -11.5470    -3.5230 O.2     
  13 O13            1.9124    -9.7823    -4.5215 O.2     
  14 O14            3.6448    -8.3480    -5.6323 O.2     
  15 N15            1.6722    -4.1846    -0.5667 N.pl3   
  16 C16            0.7326    -4.1778     0.4291 C.2     
  17 C17            2.0241    -2.8930    -0.7983 C.2     
  18 N18            1.3419    -2.1203     0.0004 N.2     
  19 C19            0.5355    -2.8777     0.7713 C.2     
  20 C20           -0.4008    -2.3798     1.8088 C.ar    
  21 C21            0.0343    -1.4569     2.7593 C.ar    
  22 C22           -1.7208    -2.8287     1.8336 C.ar    
  23 C23           -2.5884    -2.3615     2.8015 C.ar    
  24 C24           -2.1497    -1.4491     3.7455 C.ar    
  25 C25           -0.8418    -0.9965     3.7227 C.ar    
  26 C26            3.0378    -2.4290    -1.8123 C.3     
  27 C27            4.3767    -2.2581    -1.1421 C.ar    
  28 C28            5.3009    -3.2867    -1.1769 C.ar    
  29 C29            4.6791    -1.0712    -0.4995 C.ar    
  30 C30            5.9040    -0.9091     0.1155 C.ar    
  31 C31            6.8368    -1.9438     0.0882 C.ar    
  32 C32            6.5289    -3.1354    -0.5652 C.ar    
  33 C33            8.1556    -1.7752     0.7471 C.ar    
  34 C34            9.0883    -2.8099     0.7198 C.ar    
  35 C35            8.4679    -0.5794     1.3906 C.ar    
  36 C36            9.6960    -0.4280     2.0020 C.ar    
  37 C37           10.6162    -1.4604     1.9763 C.ar    
  38 C38           10.3134    -2.6477     1.3344 C.ar    
  39 C39           11.9559    -1.2888     2.6447 C.3     
  40 C40           12.1203    -2.3477     3.7368 C.3     
  41 C41           13.4805    -2.1734     4.4154 C.3     
  42 C42           14.5928    -2.3345     3.3773 C.3     
  43 C43           14.4283    -1.2756     2.2852 C.3     
  44 C44           13.0682    -1.4498     1.6066 C.3     
  45 Cl45           1.6743    -0.8883     2.7321 Cl      
  46 Cl46          -2.2729    -3.9721     0.6497 Cl      
  47 Cl47          -3.2458    -0.8652     4.9585 Cl      
  48 H48            3.7156    -8.2514    -0.5608 H       
  49 H49            2.8190    -6.2690     0.5883 H       
  50 H50            1.6551    -4.6115    -3.1767 H       
  51 H51            2.5470    -6.5955    -4.3266 H       
  52 H52            5.6643    -9.0297    -2.5480 H       
  53 H53            4.4354   -10.0388    -1.7595 H       
  54 H54            4.2644   -11.2325    -5.5523 H       
  55 H55            0.2428    -5.0389     0.8591 H       
  56 H56           -3.6109    -2.7085     2.8216 H       
  57 H57           -0.5048    -0.2845     4.4616 H       
  58 H58            3.1214    -3.1697    -2.6076 H       
  59 H59            2.7189    -1.4763    -2.2351 H       
  60 H60            5.0611    -4.2099    -1.6833 H       
  61 H61            3.9555    -0.2697    -0.4792 H       
  62 H62            6.1393     0.0182     0.6167 H       
  63 H63            7.2481    -3.9408    -0.5891 H       
  64 H64            8.8530    -3.7374     0.2189 H       
  65 H65            7.7504     0.2276     1.4107 H       
  66 H66            9.9391     0.4984     2.5010 H       
  67 H67           11.0354    -3.4507     1.3177 H       
  68 H68           12.0153    -0.2956     3.0898 H       
  69 H69           11.3279    -2.2329     4.4764 H       
  70 H70           12.0609    -3.3409     3.2917 H       
  71 H71           13.5399    -1.1802     4.8605 H       
  72 H72           13.5976    -2.9278     5.1935 H       
  73 H73           15.5618    -2.2103     3.8608 H       
  74 H74           14.5334    -3.3277     2.9322 H       
  75 H75           14.4877    -0.2824     2.7303 H       
  76 H76           15.2207    -1.3903     1.5456 H       
  77 H77           13.0088    -2.4431     1.1615 H       
  78 H78           12.9510    -0.6955     0.8285 H       
@<TRIPOS>BOND
   1    1    2 ar
   2    1    6 ar
   3    1   48 1
   4    2    3 ar
   5    2   49 1
   6    3    4 ar
   7    3   15 1
   8    4    5 ar
   9    4   50 1
  10    5    6 ar
  11    5   51 1
  12    6    7 1
  13    7    8 1
  14    7   11 am
  15    8    9 1
  16    8   52 1
  17    8   53 1
  18    9   10 am
  19    9   12 2
  20   10   11 am
  21   10   54 1
  22   11   13 2
  23   11   14 2
  24   15   16 1
  25   15   17 1
  26   16   19 2
  27   16   55 1
  28   17   18 2
  29   17   26 1
  30   18   19 1
  31   19   20 1
  32   20   21 ar
  33   20   22 ar
  34   21   45 1
  35   21   25 ar
  36   22   23 ar
  37   22   46 1
  38   23   24 ar
  39   23   56 1
  40   24   25 ar
  41   24   47 1
  42   25   57 1
  43   26   27 1
  44   26   58 1
  45   26   59 1
  46   27   28 ar
  47   27   29 ar
  48   28   32 ar
  49   28   60 1
  50   29   30 ar
  51   29   61 1
  52   30   31 ar
  53   30   62 1
  54   31   32 ar
  55   31   33 1
  56   32   63 1
  57   33   34 ar
  58   33   35 ar
  59   34   38 ar
  60   34   64 1
  61   35   36 ar
  62   35   65 1
  63   36   37 ar
  64   36   66 1
  65   37   38 ar
  66   37   39 1
  67   38   67 1
  68   39   40 1
  69   39   44 1
  70   39   68 1
  71   40   41 1
  72   40   69 1
  73   40   70 1
  74   41   42 1
  75   41   71 1
  76   41   72 1
  77   42   43 1
  78   42   73 1
  79   42   74 1
  80   43   44 1
  81   43   75 1
  82   43   76 1
  83   44   77 1
  84   44   78 1

#	End of record

