#	Name: ASD02030442
#	Creating user name:	WinNT
#	Creation time:	15. 06. 2019 20:15

#	Modifying user name:	WinNT
#	Modification time:	15. 06. 2019 20:15

#	Program:	/corina/corina34_cracker 3.40 0067  02.08.2006

@<TRIPOS>MOLECULE
ASD02030442
  48   49    0    0    0
SMALL
NO_CHARGES


@<TRIPOS>ATOM
   1 C1             0.0281     1.1471     0.0347 C.2     
   2 O2             0.0897    -0.0667     0.0110 O.2     
   3 N3             3.3195     2.4722     0.0377 N.pl3   
   4 N4             2.4953     1.4833     0.0956 N.2     
   5 C5             1.2686     1.9508     0.0090 C.2     
   6 N6             1.3421     3.2894    -0.1076 N.2     
   7 C7             2.6102     3.6124    -0.0899 C.2     
   8 C8             4.7163     2.3792     0.1025 C.ar    
   9 C9             5.3254     1.1391     0.2407 C.ar    
  10 C10            6.7022     1.0508     0.3043 C.ar    
  11 C11            7.4741     2.1957     0.2304 C.ar    
  12 C12            6.8705     3.4323     0.0932 C.ar    
  13 C13            5.4943     3.5265     0.0228 C.ar    
  14 N14           -1.1713     1.7603     0.0788 N.am    
  15 C15           -2.4181     0.9894    -0.0413 C.3     
  16 C16           -3.3398     1.3701     1.1221 C.3     
  17 N17           -3.5116     2.8288     1.1495 N.3     
  18 C18           -2.2351     3.5111     1.4004 C.3     
  19 C19           -1.2682     3.2174     0.2544 C.3     
  20 C20           -3.1021     1.3219    -1.3689 C.3     
  21 C21           -2.1050    -0.5070     0.0194 C.3     
  22 H22            3.0154     4.6107    -0.1641 H       
  23 H23            4.7231     0.2445     0.2988 H       
  24 H24            7.1765     0.0865     0.4122 H       
  25 H25            8.5506     2.1241     0.2804 H       
  26 H26            7.4759     4.3248     0.0365 H       
  27 H27            5.0236     4.4921    -0.0892 H       
  28 H28           -4.3103     0.8920     0.9888 H       
  29 H29           -2.8964     1.0384     2.0610 H       
  30 H30           -3.9364     3.1589     0.2959 H       
  31 H31           -2.4043     4.5857     1.4688 H       
  32 H32           -1.8070     3.1496     2.3354 H       
  33 H33           -0.2853     3.6236     0.4931 H       
  34 H34           -1.6428     3.6725    -0.6624 H       
  35 H35           -2.4375     1.0662    -2.1941 H       
  36 H36           -4.0256     0.7494    -1.4553 H       
  37 H37           -3.3305     2.3872    -1.4032 H       
  38 H38           -1.5419    -0.7238     0.9271 H       
  39 H39           -3.0365    -1.0731     0.0257 H       
  40 H40           -1.5137    -0.7901    -0.8514 H       
  41 C41           14.7220    11.5990     8.4822 C.2     
  42 C42           14.7424    10.0921     8.4739 C.3     
  43 O43           15.7600    12.2173     8.4756 O.2     
  44 O44           13.5506    12.2543     8.4913 O.3     
  45 F45           16.0676     9.6438     8.4588 F       
  46 F46           14.1003     9.6107     9.6198 F       
  47 F47           14.0784     9.6230     7.3354 F       
  48 H48           13.5881    13.2205     8.4964 H       
@<TRIPOS>BOND
   1    1    2 2
   2    1    5 1
   3    1   14 am
   4    3    4 1
   5    3    7 1
   6    3    8 1
   7    4    5 2
   8    5    6 1
   9    6    7 2
  10    7   22 1
  11    8    9 ar
  12    8   13 ar
  13    9   10 ar
  14    9   23 1
  15   10   11 ar
  16   10   24 1
  17   11   12 ar
  18   11   25 1
  19   12   13 ar
  20   12   26 1
  21   13   27 1
  22   14   15 1
  23   14   19 1
  24   15   16 1
  25   15   20 1
  26   15   21 1
  27   16   17 1
  28   16   28 1
  29   16   29 1
  30   17   18 1
  31   17   30 1
  32   18   19 1
  33   18   31 1
  34   18   32 1
  35   19   33 1
  36   19   34 1
  37   20   35 1
  38   20   36 1
  39   20   37 1
  40   21   38 1
  41   21   39 1
  42   21   40 1
  43   41   42 1
  44   41   43 2
  45   41   44 1
  46   42   45 1
  47   42   46 1
  48   42   47 1
  49   44   48 1

#	End of record

