#	Name: ASD04912003
#	Creating user name:	WinNT
#	Creation time:	15. 06. 2019 20:56

#	Modifying user name:	WinNT
#	Modification time:	15. 06. 2019 20:56

#	Program:	/corina/corina34_cracker 3.40 0067  02.08.2006

@<TRIPOS>MOLECULE
ASD04912003
  76   80    0    0    0
SMALL
NO_CHARGES


@<TRIPOS>ATOM
   1 C1            -0.1445     1.4615    -0.8904 C.ar    
   2 C2            -0.2407     0.6464     0.2278 C.ar    
   3 C3            -1.3933    -0.0791     0.4567 C.ar    
   4 C4            -2.4558     0.0075    -0.4327 C.ar    
   5 C5            -2.3589     0.8236    -1.5517 C.ar    
   6 C6            -1.2079     1.5529    -1.7764 C.ar    
   7 O7             0.9906     2.1756    -1.1152 O.3     
   8 C8             1.0209     2.9943    -2.2860 C.3     
   9 F9            -0.0103     3.9377    -2.2222 F       
  10 F10            2.2523     3.6539    -2.3622 F       
  11 F11            0.8501     2.1930    -3.4200 F       
  12 N12           -3.6268    -0.7296    -0.2010 N.am    
  13 C13           -4.8606    -0.0165     0.1336 C.3     
  14 C14           -6.0630    -0.8978    -0.2069 C.3     
  15 C15           -5.8714    -2.2505     0.5239 C.3     
  16 N16           -4.6549    -2.8445    -0.0235 N.am    
  17 C17           -3.5892    -2.0648    -0.2976 C.2     
  18 O18           -2.5545    -2.6016    -0.6454 O.2     
  19 C19           -5.6862    -1.9311     2.0053 C.3     
  20 C20           -5.8059    -3.1847     2.8677 C.3     
  21 C21           -7.1992    -3.7861     2.6673 C.3     
  22 C22           -7.3296    -4.2395     1.2137 C.3     
  23 C23           -7.1149    -3.0787     0.2571 C.3     
  24 C24           -7.3780    -4.9860     3.5993 C.3     
  25 C25           -7.2243    -4.5309     5.0519 C.3     
  26 C26           -8.7711    -5.5855     3.3973 C.3     
  27 C27           -6.3174    -6.0418     3.2806 C.3     
  28 C28           -4.5449    -4.2738    -0.3062 C.3     
  29 C29           -4.8600    -4.5244    -1.7584 C.ar    
  30 C30           -3.8711    -4.3720    -2.7140 C.ar    
  31 C31           -4.1529    -4.5998    -4.0451 C.ar    
  32 C32           -5.4390    -4.9853    -4.4269 C.ar    
  33 C33           -6.4319    -5.1377    -3.4577 C.ar    
  34 C34           -6.1355    -4.9113    -2.1295 C.ar    
  35 C35           -5.7482    -5.2306    -5.8514 C.2     
  36 N36           -6.9910    -5.6027    -6.2168 N.am    
  37 O37           -4.8816    -5.0968    -6.6933 O.2     
  38 C38           -7.2835    -5.8348    -7.5642 C.2     
  39 N39           -6.4332    -5.7263    -8.5860 N.2     
  40 N40           -7.0330    -6.0124    -9.6867 N.2     
  41 N41           -8.2636    -6.3116    -9.4442 N.pl3   
  42 N42           -8.4473    -6.2059    -8.0557 N.2     
  43 H43            0.5860     0.5788     0.9194 H       
  44 H44           -1.4679    -0.7140     1.3272 H       
  45 H45           -3.1851     0.8914    -2.2440 H       
  46 H46           -1.1324     2.1878    -2.6468 H       
  47 H47           -4.8679     0.2302     1.1943 H       
  48 H48           -4.9110     0.9074    -0.4472 H       
  49 H49           -6.9820    -0.4343     0.1423 H       
  50 H50           -6.1079    -1.0783    -1.2776 H       
  51 H51           -4.6981    -1.4877     2.1591 H       
  52 H52           -6.4440    -1.2063     2.3153 H       
  53 H53           -5.0485    -3.9113     2.5806 H       
  54 H54           -5.6755    -2.9205     3.9177 H       
  55 H55           -7.9561    -3.0349     2.8874 H       
  56 H56           -6.6305    -5.0497     1.0202 H       
  57 H57           -8.3444    -4.6372     1.0667 H       
  58 H58           -7.9944    -2.4132     0.3212 H       
  59 H59           -7.0972    -3.4539    -0.7737 H       
  60 H60           -7.9799    -3.7788     5.2789 H       
  61 H61           -7.3517    -5.3859     5.7159 H       
  62 H62           -6.2318    -4.1039     5.1958 H       
  63 H63           -8.8806    -5.9097     2.3624 H       
  64 H64           -8.8985    -6.4404     4.0613 H       
  65 H65           -9.5267    -4.8334     3.6243 H       
  66 H66           -5.3250    -5.6147     3.4245 H       
  67 H67           -6.4448    -6.8967     3.9447 H       
  68 H68           -6.4269    -6.3660     2.2458 H       
  69 H69           -3.5304    -4.6096    -0.0914 H       
  70 H70           -5.2493    -4.8230     0.3185 H       
  71 H71           -2.8764    -4.0737    -2.4172 H       
  72 H72           -3.3802    -4.4798    -4.7901 H       
  73 H73           -7.4291    -5.4353    -3.7466 H       
  74 H74           -6.9027    -5.0292    -1.3786 H       
  75 H75           -7.6825    -5.7095    -5.5450 H       
  76 H76           -8.9347    -6.5651   -10.0970 H       
@<TRIPOS>BOND
   1    1    2 ar
   2    1    7 1
   3    1    6 ar
   4    2    3 ar
   5    2   43 1
   6    3    4 ar
   7    3   44 1
   8    4    5 ar
   9    4   12 1
  10    5    6 ar
  11    5   45 1
  12    6   46 1
  13    7    8 1
  14    8    9 1
  15    8   10 1
  16    8   11 1
  17   12   13 1
  18   12   17 am
  19   13   14 1
  20   13   47 1
  21   13   48 1
  22   14   15 1
  23   14   49 1
  24   14   50 1
  25   15   16 1
  26   15   19 1
  27   15   23 1
  28   16   17 am
  29   16   28 1
  30   17   18 2
  31   19   20 1
  32   19   51 1
  33   19   52 1
  34   20   21 1
  35   20   53 1
  36   20   54 1
  37   21   22 1
  38   21   24 1
  39   21   55 1
  40   22   23 1
  41   22   56 1
  42   22   57 1
  43   23   58 1
  44   23   59 1
  45   24   25 1
  46   24   26 1
  47   24   27 1
  48   25   60 1
  49   25   61 1
  50   25   62 1
  51   26   63 1
  52   26   64 1
  53   26   65 1
  54   27   66 1
  55   27   67 1
  56   27   68 1
  57   28   29 1
  58   28   69 1
  59   28   70 1
  60   29   30 ar
  61   29   34 ar
  62   30   31 ar
  63   30   71 1
  64   31   32 ar
  65   31   72 1
  66   32   33 ar
  67   32   35 1
  68   33   34 ar
  69   33   73 1
  70   34   74 1
  71   35   36 am
  72   35   37 2
  73   36   38 1
  74   36   75 1
  75   38   39 1
  76   38   42 2
  77   39   40 2
  78   40   41 1
  79   41   42 1
  80   41   76 1

#	End of record

