#	Name: ASD03331611
#	Creating user name:	WinNT
#	Creation time:	15. 06. 2019 20:39

#	Modifying user name:	WinNT
#	Modification time:	15. 06. 2019 20:39

#	Program:	/corina/corina34_cracker 3.40 0067  02.08.2006

@<TRIPOS>MOLECULE
ASD03331611
  72   74    0    0    0
SMALL
NO_CHARGES


@<TRIPOS>ATOM
   1 C1            -0.1524     0.9179     2.1107 C.ar    
   2 C2            -0.0411    -0.5061     1.7259 C.2     
   3 N3            -0.9534    -1.4777     1.9964 N.pl3   
   4 C4            -0.4859    -2.6382     1.4780 C.2     
   5 C5             0.7102    -2.3691     0.8952 C.2     
   6 N6             0.9544    -1.0478     1.0590 N.2     
   7 C7             1.5812    -3.3374     0.2058 C.2     
   8 N8             2.7489    -2.9308    -0.3304 N.am    
   9 C9            -2.2339    -1.3462     2.7192 C.3     
  10 C10           -2.1147    -2.1930     3.9968 C.3     
  11 C11           -2.3310    -3.6558     3.6954 C.3     
  12 N12           -1.2698    -4.3392     2.9869 N.3     
  13 C13           -1.2079    -3.9705     1.5596 C.3     
  14 C14           -0.8362     1.2774     3.2724 C.ar    
  15 O15            1.2462    -4.5034     0.1206 O.2     
  16 C16            3.6148    -3.8934    -1.0158 C.3     
  17 C17           -1.3801    -5.7950     3.1502 C.3     
  18 C18           -2.5581    -4.3831     5.0222 C.3     
  19 C19            3.1654    -4.0375    -2.4712 C.3     
  20 C20            5.0397    -3.4045    -0.9761 C.2     
  21 C21            3.2113    -2.6705    -3.1569 C.3     
  22 C22            4.0997    -5.0053    -3.2001 C.3     
  23 C23            1.7357    -4.5808    -2.5121 C.3     
  24 C24           -0.9371     2.6087     3.6269 C.ar    
  25 C25           -0.3600     3.5864     2.8288 C.ar    
  26 C26            0.3192     3.2325     1.6744 C.ar    
  27 C27            0.4310     1.9053     1.3158 C.ar    
  28 F28           -0.4613     4.8874     3.1786 F       
  29 F29           -1.5987     2.9592     4.7514 F       
  30 O30            5.2736    -2.2348    -0.7570 O.2     
  31 N31            6.0542    -4.2671    -1.1842 N.am    
  32 C32            7.4406    -3.8149    -1.0441 C.3     
  33 C33            7.6709    -3.3104     0.3819 C.3     
  34 C34            8.3888    -4.9806    -1.3320 C.3     
  35 C35            7.7100    -2.6814    -2.0358 C.3     
  36 H36            3.0161    -2.0008    -0.2624 H       
  37 H37           -2.4090    -0.3023     2.9795 H       
  38 H38           -3.0505    -1.7186     2.1007 H       
  39 H39           -1.1211    -2.0583     4.4245 H       
  40 H40           -2.8621    -1.8613     4.7176 H       
  41 H41           -3.2429    -3.7467     3.1052 H       
  42 H42           -2.2158    -3.8725     1.1565 H       
  43 H43           -0.6555    -4.7277     1.0032 H       
  44 H44           -1.2859     0.5165     3.8930 H       
  45 H45            3.5485    -4.8607    -0.5176 H       
  46 H46           -2.3779    -6.1192     2.8544 H       
  47 H47           -0.6371    -6.2882     2.5235 H       
  48 H48           -1.2073    -6.0576     4.1939 H       
  49 H49           -3.3529    -3.8856     5.5779 H       
  50 H50           -2.8440    -5.4165     4.8258 H       
  51 H51           -1.6391    -4.3655     5.6082 H       
  52 H52            4.2298    -2.2835    -3.1277 H       
  53 H53            2.8911    -2.7732    -4.1937 H       
  54 H54            2.5456    -1.9811    -2.6376 H       
  55 H55            4.0374    -5.9895    -2.7359 H       
  56 H56            3.8034    -5.0777    -4.2465 H       
  57 H57            5.1241    -4.6381    -3.1371 H       
  58 H58            1.0700    -3.8914    -1.9928 H       
  59 H59            1.4155    -4.6835    -3.5489 H       
  60 H60            1.7030    -5.5547    -2.0236 H       
  61 H61            0.7660     3.9972     1.0562 H       
  62 H62            0.9609     1.6314     0.4155 H       
  63 H63            5.8663    -5.1873    -1.4266 H       
  64 H64            7.4789    -4.1180     1.0884 H       
  65 H65            8.7024    -2.9740     0.4861 H       
  66 H66            6.9953    -2.4800     0.5870 H       
  67 H67            8.2247    -5.3400    -2.3479 H       
  68 H68            9.4203    -4.6441    -1.2278 H       
  69 H69            8.1969    -5.7881    -0.6255 H       
  70 H70            7.0344    -1.8509    -1.8306 H       
  71 H71            8.7415    -2.3450    -1.9316 H       
  72 H72            7.5459    -3.0408    -3.0517 H       
@<TRIPOS>BOND
   1    1    2 1
   2    1   14 ar
   3    1   27 ar
   4    2    3 1
   5    2    6 2
   6    3    4 1
   7    3    9 1
   8    4    5 2
   9    4   13 1
  10    5    6 1
  11    5    7 1
  12    7    8 am
  13    7   15 2
  14    8   16 1
  15    8   36 1
  16    9   10 1
  17    9   37 1
  18    9   38 1
  19   10   11 1
  20   10   39 1
  21   10   40 1
  22   11   12 1
  23   11   18 1
  24   11   41 1
  25   12   13 1
  26   12   17 1
  27   13   42 1
  28   13   43 1
  29   14   24 ar
  30   14   44 1
  31   16   19 1
  32   16   20 1
  33   16   45 1
  34   17   46 1
  35   17   47 1
  36   17   48 1
  37   18   49 1
  38   18   50 1
  39   18   51 1
  40   19   21 1
  41   19   22 1
  42   19   23 1
  43   20   30 2
  44   20   31 am
  45   21   52 1
  46   21   53 1
  47   21   54 1
  48   22   55 1
  49   22   56 1
  50   22   57 1
  51   23   58 1
  52   23   59 1
  53   23   60 1
  54   24   25 ar
  55   24   29 1
  56   25   26 ar
  57   25   28 1
  58   26   27 ar
  59   26   61 1
  60   27   62 1
  61   31   32 1
  62   31   63 1
  63   32   33 1
  64   32   34 1
  65   32   35 1
  66   33   64 1
  67   33   65 1
  68   33   66 1
  69   34   67 1
  70   34   68 1
  71   34   69 1
  72   35   70 1
  73   35   71 1
  74   35   72 1

#	End of record

