#	Name: ASD03730383
#	Creating user name:	WinNT
#	Creation time:	15. 06. 2019 20:44

#	Modifying user name:	WinNT
#	Modification time:	15. 06. 2019 20:44

#	Program:	/corina/corina34_cracker 3.40 0067  02.08.2006

@<TRIPOS>MOLECULE
ASD03730383
  62   68    0    0    0
SMALL
NO_CHARGES


@<TRIPOS>ATOM
   1 O1            -0.3010     2.6111    -2.7611 O.3     
   2 C2            -0.3465     1.3200    -3.3969 C.3     
   3 O3             0.8903     1.2558    -4.1308 O.3     
   4 C4             1.7590     2.0642    -3.4549 C.ar    
   5 C5             1.0259     2.8980    -2.6137 C.ar    
   6 C6             3.1388     2.1566    -3.4895 C.ar    
   7 C7             3.8037     3.0807    -2.6890 C.ar    
   8 C8             3.0601     3.9139    -1.8589 C.ar    
   9 C9             1.6846     3.8198    -1.8176 C.ar    
  10 O10            5.1402     3.3200    -2.5602 O.3     
  11 C11            4.0456     4.8067    -1.1535 C.3     
  12 C12            5.3352     4.6169    -1.9638 C.3     
  13 N13            3.5419     6.6082     0.1599 N.am    
  14 C14            3.6016     6.2410    -1.1357 C.2     
  15 C15            4.2285     4.4290     0.2865 C.ar    
  16 C16            4.6185     3.2726     0.9244 C.ar    
  17 C17            4.6934     3.2346     2.3054 C.ar    
  18 C18            4.3757     4.3605     3.0430 C.ar    
  19 C19            3.9837     5.5210     2.4088 C.ar    
  20 C20            3.9057     5.5685     1.0190 C.ar    
  21 O21            3.3471     6.9336    -2.0984 O.2     
  22 C22            3.1426     7.9425     0.6142 C.3     
  23 C23            1.6513     7.9748     0.8286 C.ar    
  24 C24            1.1261     7.6484     2.0663 C.ar    
  25 C25           -0.2382     7.6764     2.2693 C.ar    
  26 C26           -1.0891     8.0351     1.2227 C.ar    
  27 C27           -0.5528     8.3633    -0.0235 C.ar    
  28 C28            0.8137     8.3364    -0.2116 C.ar    
  29 C29           -2.5522     8.0668     1.4329 C.2     
  30 O30           -3.0168     8.6662     2.3828 O.2     
  31 N31           -3.3707     7.4312     0.5713 N.am    
  32 C32           -2.8314     6.7727    -0.6263 C.3     
  33 C33           -3.3114     5.3181    -0.6476 C.3     
  34 C34           -4.8382     5.2874    -0.5472 C.3     
  35 C35           -5.2771     5.9216     0.7746 C.3     
  36 C36           -4.8187     7.3782     0.8150 C.3     
  37 H37           -0.3905     0.5270    -2.6504 H       
  38 H38           -1.1978     1.2568    -4.0747 H       
  39 H39            3.7038     1.5072    -4.1418 H       
  40 H40            1.1198     4.4671    -1.1630 H       
  41 H41            6.2068     4.6149    -1.3093 H       
  42 H42            5.4272     5.3859    -2.7308 H       
  43 H43            4.8657     2.3945     0.3463 H       
  44 H44            4.9988     2.3278     2.8062 H       
  45 H45            4.4344     4.3309     4.1210 H       
  46 H46            3.7364     6.3958     2.9919 H       
  47 H47            3.6494     8.1741     1.5510 H       
  48 H48            3.4174     8.6803    -0.1396 H       
  49 H49            1.7856     7.3706     2.8752 H       
  50 H50           -0.6469     7.4210     3.2358 H       
  51 H51           -1.2058     8.6417    -0.8374 H       
  52 H52            1.2302     8.5941    -1.1742 H       
  53 H53           -3.1874     7.2881    -1.5183 H       
  54 H54           -1.7420     6.7976    -0.5976 H       
  55 H55           -2.9985     4.8453    -1.5785 H       
  56 H56           -2.8805     4.7803     0.1969 H       
  57 H57           -5.2681     5.8464    -1.3785 H       
  58 H58           -5.1841     4.2545    -0.5870 H       
  59 H59           -6.3632     5.8784     0.8560 H       
  60 H60           -4.8276     5.3782     1.6058 H       
  61 H61           -5.0402     7.8026     1.7943 H       
  62 H62           -5.3401     7.9440     0.0429 H       
@<TRIPOS>BOND
   1    1    2 1
   2    1    5 1
   3    2    3 1
   4    2   37 1
   5    2   38 1
   6    3    4 1
   7    4    5 ar
   8    4    6 ar
   9    5    9 ar
  10    6    7 ar
  11    6   39 1
  12    7    8 ar
  13    7   10 1
  14    8    9 ar
  15    8   11 1
  16    9   40 1
  17   10   12 1
  18   11   12 1
  19   11   14 1
  20   11   15 1
  21   12   41 1
  22   12   42 1
  23   13   14 am
  24   13   20 1
  25   13   22 1
  26   14   21 2
  27   15   16 ar
  28   15   20 ar
  29   16   17 ar
  30   16   43 1
  31   17   18 ar
  32   17   44 1
  33   18   19 ar
  34   18   45 1
  35   19   20 ar
  36   19   46 1
  37   22   23 1
  38   22   47 1
  39   22   48 1
  40   23   24 ar
  41   23   28 ar
  42   24   25 ar
  43   24   49 1
  44   25   26 ar
  45   25   50 1
  46   26   27 ar
  47   26   29 1
  48   27   28 ar
  49   27   51 1
  50   28   52 1
  51   29   30 2
  52   29   31 am
  53   31   32 1
  54   31   36 1
  55   32   33 1
  56   32   53 1
  57   32   54 1
  58   33   34 1
  59   33   55 1
  60   33   56 1
  61   34   35 1
  62   34   57 1
  63   34   58 1
  64   35   36 1
  65   35   59 1
  66   35   60 1
  67   36   61 1
  68   36   62 1

#	End of record

