#	Name: ASD03331387
#	Creating user name:	WinNT
#	Creation time:	15. 06. 2019 20:39

#	Modifying user name:	WinNT
#	Modification time:	15. 06. 2019 20:39

#	Program:	/corina/corina34_cracker 3.40 0067  02.08.2006

@<TRIPOS>MOLECULE
ASD03331387
  64   67    0    0    0
SMALL
NO_CHARGES


@<TRIPOS>ATOM
   1 N1             0.2813     0.5682    -0.1006 N.2     
   2 N2             0.0952    -0.8231    -0.0695 N.am    
   3 C3             1.3173    -1.4043    -0.0564 C.2     
   4 C4             2.2488    -0.4194    -0.0764 C.2     
   5 C5             1.5767     0.8116    -0.1049 C.2     
   6 C6             3.7328    -0.6883    -0.0657 C.3     
   7 C7             1.6751    -2.8699    -0.0274 C.3     
   8 C8             3.1540    -2.9976    -0.4215 C.3     
   9 O9             3.9322    -2.0549     0.3209 O.3     
  10 C10           -1.0896    -1.4654    -0.0548 C.2     
  11 O11           -1.1220    -2.6797    -0.0273 O.2     
  12 N12           -2.2384    -0.7608    -0.0707 N.am    
  13 C13           -4.5817    -0.5804    -0.6753 C.2     
  14 C14           -3.5262    -1.4591    -0.0548 C.3     
  15 C15           -3.9145    -1.7800     1.3899 C.3     
  16 C16           -5.3175    -2.3898     1.4175 C.3     
  17 O17           -4.5117     0.6249    -0.5603 O.2     
  18 C18           -2.9135    -2.7768     1.9776 C.3     
  19 C19           -3.9008    -0.4944     2.2193 C.3     
  20 N20           -5.6034    -1.1341    -1.3579 N.am    
  21 C21           -6.7513    -0.4079    -1.9206 C.3     
  22 C22           -7.6444    -1.4447    -2.6341 C.3     
  23 C23           -6.6623    -2.6115    -2.9195 C.3     
  24 C24           -5.7519    -2.5673    -1.6696 C.3     
  25 C25           -7.5379     0.2719    -0.7982 C.3     
  26 O26           -8.1074    -0.7233     0.0547 O.3     
  27 C27            2.2123     2.1520    -0.1348 C.ar    
  28 C28            1.6193     3.1906    -0.8503 C.ar    
  29 C29            2.2148     4.4369    -0.8752 C.ar    
  30 C30            3.4016     4.6539    -0.1892 C.ar    
  31 C31            3.9928     3.6234     0.5220 C.ar    
  32 C32            3.4004     2.3771     0.5571 C.ar    
  33 F33            3.9818     5.8737    -0.2158 F       
  34 F34            1.6417     5.4451    -1.5682 F       
  35 H35            4.1443    -0.5231    -1.0614 H       
  36 H36            4.2218    -0.0277     0.6501 H       
  37 H37            1.5246    -3.2671     0.9765 H       
  38 H38            1.0548    -3.4157    -0.7383 H       
  39 H39            3.5018    -4.0073    -0.2030 H       
  40 H40            3.2638    -2.7993    -1.4877 H       
  41 H41           -2.2125     0.2086    -0.0927 H       
  42 H42           -3.4443    -2.3854    -0.6234 H       
  43 H43           -5.3229    -3.3150     0.8413 H       
  44 H44           -5.6012    -2.6020     2.4483 H       
  45 H45           -6.0278    -1.6867     0.9825 H       
  46 H46           -1.9140    -2.3424     1.9579 H       
  47 H47           -3.1901    -3.0054     3.0068 H       
  48 H48           -2.9233    -3.6927     1.3867 H       
  49 H49           -4.6139     0.2157     1.8006 H       
  50 H50           -4.1774    -0.7230     3.2485 H       
  51 H51           -2.9013    -0.0600     2.1997 H       
  52 H52           -6.4038     0.3372    -2.6364 H       
  53 H53           -8.4527    -1.7722    -1.9803 H       
  54 H54           -8.0403    -1.0375    -3.5644 H       
  55 H55           -7.1927    -3.5614    -2.9853 H       
  56 H56           -6.0857    -2.4241    -3.8254 H       
  57 H57           -4.7808    -3.0099    -1.8912 H       
  58 H58           -6.2268    -3.0890    -0.8387 H       
  59 H59           -6.8684     0.9073    -0.2185 H       
  60 H60           -8.3336     0.8799    -1.2287 H       
  61 H61           -8.6214    -0.3634     0.7905 H       
  62 H62            0.6962     3.0214    -1.3847 H       
  63 H63            4.9165     3.7964     1.0541 H       
  64 H64            3.8604     1.5758     1.1163 H       
@<TRIPOS>BOND
   1    1    2 1
   2    1    5 2
   3    2    3 1
   4    2   10 am
   5    3    4 2
   6    3    7 1
   7    4    5 1
   8    4    6 1
   9    5   27 1
  10    6    9 1
  11    6   35 1
  12    6   36 1
  13    7    8 1
  14    7   37 1
  15    7   38 1
  16    8    9 1
  17    8   39 1
  18    8   40 1
  19   10   11 2
  20   10   12 am
  21   12   14 1
  22   12   41 1
  23   13   17 2
  24   13   20 am
  25   13   14 1
  26   14   15 1
  27   14   42 1
  28   15   16 1
  29   15   18 1
  30   15   19 1
  31   16   43 1
  32   16   44 1
  33   16   45 1
  34   18   46 1
  35   18   47 1
  36   18   48 1
  37   19   49 1
  38   19   50 1
  39   19   51 1
  40   20   21 1
  41   20   24 1
  42   21   22 1
  43   21   25 1
  44   21   52 1
  45   22   23 1
  46   22   53 1
  47   22   54 1
  48   23   24 1
  49   23   55 1
  50   23   56 1
  51   24   57 1
  52   24   58 1
  53   25   26 1
  54   25   59 1
  55   25   60 1
  56   26   61 1
  57   27   28 ar
  58   27   32 ar
  59   28   29 ar
  60   28   62 1
  61   29   30 ar
  62   29   34 1
  63   30   31 ar
  64   30   33 1
  65   31   32 ar
  66   31   63 1
  67   32   64 1

#	End of record

