#	Name: ASD02401019
#	Creating user name:	WinNT
#	Creation time:	15. 06. 2019 20:20

#	Modifying user name:	WinNT
#	Modification time:	15. 06. 2019 20:20

#	Program:	/corina/corina34_cracker 3.40 0067  02.08.2006

@<TRIPOS>MOLECULE
ASD02401019
  27   28    0    0    0
SMALL
NO_CHARGES


@<TRIPOS>ATOM
   1 C1            -0.0167     1.3781     0.0096 C.ar    
   2 C2             0.0021    -0.0041     0.0020 C.ar    
   3 C3             1.2084    -0.6789    -0.0132 C.ar    
   4 C4             2.3960     0.0285    -0.0212 C.ar    
   5 C5             2.3773     1.4107    -0.0145 C.ar    
   6 C6             1.1710     2.0855     0.0021 C.ar    
   7 C7             3.6720     2.1819    -0.0228 C.3     
   8 C8             4.0905     2.4457    -1.4463 C.ar    
   9 C9             3.6691     3.5954    -2.0871 C.ar    
  10 C10            4.0504     3.8420    -3.3933 C.ar    
  11 C11            4.8565     2.9357    -4.0623 C.ar    
  12 C12            5.2809     1.7777    -3.4169 C.ar    
  13 C13            4.9000     1.5395    -2.1066 C.ar    
  14 O14            6.0724     0.8849    -4.0695 O.3     
  15 O15            5.2320     3.1765    -5.3470 O.3     
  16 H16           -0.9592     1.9054     0.0170 H       
  17 H17           -0.9258    -0.5567     0.0083 H       
  18 H18            1.2231    -1.7588    -0.0184 H       
  19 H19            3.3386    -0.4987    -0.0324 H       
  20 H20            1.1563     3.1654     0.0069 H       
  21 H21            3.5335     3.1300     0.4968 H       
  22 H22            4.4443     1.6008     0.4812 H       
  23 H23            3.0403     4.3027    -1.5667 H       
  24 H24            3.7194     4.7411    -3.8919 H       
  25 H25            5.2279     0.6419    -1.6035 H       
  26 H26            7.0196     1.0515    -3.9684 H       
  27 H27            6.0589     3.6711    -5.4290 H       
@<TRIPOS>BOND
   1    1    2 ar
   2    1    6 ar
   3    1   16 1
   4    2    3 ar
   5    2   17 1
   6    3    4 ar
   7    3   18 1
   8    4    5 ar
   9    4   19 1
  10    5    6 ar
  11    5    7 1
  12    6   20 1
  13    7    8 1
  14    7   21 1
  15    7   22 1
  16    8    9 ar
  17    8   13 ar
  18    9   10 ar
  19    9   23 1
  20   10   11 ar
  21   10   24 1
  22   11   12 ar
  23   11   15 1
  24   12   13 ar
  25   12   14 1
  26   13   25 1
  27   14   26 1
  28   15   27 1

#	End of record

