#	Name: ASD01148504
#	Creating user name:	WinNT
#	Creation time:	15. 06. 2019 19:02

#	Modifying user name:	WinNT
#	Modification time:	15. 06. 2019 19:02

#	Program:	/corina/corina34_cracker 3.40 0067  02.08.2006

@<TRIPOS>MOLECULE
ASD01148504
  50   53    0    0    0
SMALL
NO_CHARGES


@<TRIPOS>ATOM
   1 C1            -0.0180     1.4363     0.0451 C.ar    
   2 C2            -0.0166     0.0528     0.0405 C.ar    
   3 C3             1.1824    -0.6372     0.0176 C.ar    
   4 C4             2.3780     0.0560    -0.0007 C.ar    
   5 C5             2.3760     1.4384     0.0038 C.ar    
   6 C6             1.1783     2.1283     0.0267 C.ar    
   7 C7             3.6800     2.1936    -0.0157 C.3     
   8 O8             4.6901     1.4604    -0.7379 O.3     
   9 C9             3.5603     3.4833    -0.8622 C.3     
  10 C10            4.0470     3.0294    -2.2254 C.2     
  11 N11            4.6599     1.9008    -2.0811 N.2     
  12 C12            3.8537     3.7505    -3.4950 C.ar    
  13 C13            4.3769     3.1973    -4.7418 C.ar    
  14 C14            3.1683     4.9574    -3.5155 C.ar    
  15 C15            2.9718     5.6557    -4.6936 C.ar    
  16 C16            3.4513     5.1792    -5.9062 C.ar    
  17 C17            4.1761     3.9113    -5.9467 C.ar    
  18 C18            3.2262     5.9448    -7.1451 C.2     
  19 O19            3.7375     5.5802    -8.1864 O.2     
  20 N20            2.4537     7.0490    -7.1240 N.am    
  21 C21            4.6770     3.3923    -7.1472 C.ar    
  22 C22            5.0694     1.9800    -4.7690 C.ar    
  23 C23            4.1462     2.5123     1.4062 C.3     
  24 F24            4.3114     1.3209     2.1209 F       
  25 F25            5.3645     3.1980     1.3548 F       
  26 F26            3.1890     3.3092     2.0432 F       
  27 Cl27          -1.5187    -0.8172     0.0642 Cl      
  28 C28            2.2428     7.7666    -8.2853 C.2     
  29 N29            2.7856     7.3796    -9.3909 N.2     
  30 O30            2.5694     8.1152   -10.5813 O.3     
  31 C31            3.2295     7.5737   -11.7272 C.3     
  32 C32            5.5404     1.4999    -5.9549 C.ar    
  33 C33            5.3474     2.2052    -7.1397 C.ar    
  34 H34           -0.9537     1.9754     0.0585 H       
  35 H35            1.1841    -1.7172     0.0144 H       
  36 H36            3.3140    -0.4825    -0.0183 H       
  37 H37            1.1773     3.2083     0.0302 H       
  38 H38            2.5243     3.8180    -0.9130 H       
  39 H39            4.2027     4.2685    -0.4638 H       
  40 H40            2.7797     5.3599    -2.5917 H       
  41 H41            2.4335     6.5916    -4.6694 H       
  42 H42            2.0459     7.3398    -6.2933 H       
  43 H43            4.5329     3.9291    -8.0732 H       
  44 H44            5.2296     1.4255    -3.8562 H       
  45 H45            1.6238     8.6514    -8.2684 H       
  46 H46            3.0142     8.1938   -12.5974 H       
  47 H47            4.3051     7.5548   -11.5517 H       
  48 H48            2.8728     6.5595   -11.9066 H       
  49 H49            6.0746     0.5614    -5.9748 H       
  50 H50            5.7333     1.8058    -8.0660 H       
@<TRIPOS>BOND
   1    1    2 ar
   2    1    6 ar
   3    1   34 1
   4    2    3 ar
   5    2   27 1
   6    3    4 ar
   7    3   35 1
   8    4    5 ar
   9    4   36 1
  10    5    6 ar
  11    5    7 1
  12    6   37 1
  13    7    8 1
  14    7    9 1
  15    7   23 1
  16    8   11 1
  17    9   10 1
  18    9   38 1
  19    9   39 1
  20   10   11 2
  21   10   12 1
  22   12   13 ar
  23   12   14 ar
  24   13   22 ar
  25   13   17 ar
  26   14   15 ar
  27   14   40 1
  28   15   16 ar
  29   15   41 1
  30   16   17 ar
  31   16   18 1
  32   17   21 ar
  33   18   19 2
  34   18   20 am
  35   20   28 1
  36   20   42 1
  37   21   33 ar
  38   21   43 1
  39   22   32 ar
  40   22   44 1
  41   23   24 1
  42   23   25 1
  43   23   26 1
  44   28   29 2
  45   28   45 1
  46   29   30 1
  47   30   31 1
  48   31   46 1
  49   31   47 1
  50   31   48 1
  51   32   33 ar
  52   32   49 1
  53   33   50 1

#	End of record

