#	Name: ASD01812481
#	Creating user name:	WinNT
#	Creation time:	15. 06. 2019 19:28

#	Modifying user name:	WinNT
#	Modification time:	15. 06. 2019 19:28

#	Program:	/corina/corina34_cracker 3.40 0067  02.08.2006

@<TRIPOS>MOLECULE
ASD01812481
  54   58    0    0    0
SMALL
NO_CHARGES


@<TRIPOS>ATOM
   1 C1            -0.0184     1.5028     0.0103 C.3     
   2 C2             0.0021    -0.0041     0.0020 C.ar    
   3 C3             0.0056    -0.6804    -1.2030 C.ar    
   4 C4             0.0249    -2.0669    -1.1996 C.ar    
   5 C5             0.0400    -2.7236     0.0212 C.ar    
   6 C6             0.0618    -4.2294     0.0774 C.3     
   7 C7             1.4897    -4.7111     0.0894 C.ar    
   8 C8             2.0861    -5.0604    -1.0766 C.ar    
   9 C9             3.4136    -5.5140    -1.1110 C.ar    
  10 C10            4.0678    -5.8946    -2.3704 C.2     
  11 O11            3.4782    -5.8295    -3.4338 O.2     
  12 N12            5.3508    -6.3199    -2.3033 N.am    
  13 C13            5.9923    -6.3861    -1.1100 C.2     
  14 N14            5.4329    -6.0548     0.0169 N.2     
  15 C15            4.1640    -5.6175     0.0749 C.ar    
  16 C16            3.5280    -5.2432     1.3323 C.ar    
  17 C17            4.1924    -5.3121     2.5621 C.ar    
  18 C18            3.5203    -4.9418     3.6919 C.ar    
  19 N19            2.2651    -4.5230     3.6483 N.ar    
  20 C20            1.5837    -4.4344     2.5291 C.ar    
  21 C21            2.1861    -4.7860     1.3116 C.ar    
  22 C22            6.0518    -6.7120    -3.5285 C.3     
  23 H23            5.3845    -6.5945    -4.3824 H       
  24 C24            7.2834    -5.8242    -3.7178 C.3     
  25 C25            8.0155    -6.2337    -4.9974 C.3     
  26 C26            8.4526    -7.6959    -4.8891 C.3     
  27 C27            7.2210    -8.5837    -4.6998 C.3     
  28 C28            6.4889    -8.1742    -3.4202 C.3     
  29 H29            7.1562    -8.2917    -2.5664 H       
  30 O30            5.3386    -9.0034    -3.2434 O.3     
  31 C31            0.0354    -1.9798     1.1862 C.ar    
  32 N32            0.0219    -0.6619     1.1449 N.ar    
  33 H33            1.0042     1.8801     0.0026 H       
  34 H34           -0.5455     1.8639    -0.8728 H       
  35 H35           -0.5286     1.8543     0.9071 H       
  36 H36           -0.0069    -0.1359    -2.1356 H       
  37 H37            0.0278    -2.6220    -2.1261 H       
  38 H38           -0.4431    -4.5665     0.9827 H       
  39 H39           -0.4505    -4.6330    -0.7960 H       
  40 H40            1.5279    -4.9884    -1.9984 H       
  41 H41            7.0158    -6.7306    -1.0946 H       
  42 H42            5.2162    -5.6516     2.6166 H       
  43 H43            4.0255    -4.9922     4.6452 H       
  44 H44            0.5612    -4.0871     2.5453 H       
  45 H45            6.9720    -4.7825    -3.7949 H       
  46 H46            7.9507    -5.9417    -2.8640 H       
  47 H47            7.3482    -6.1162    -5.8512 H       
  48 H48            8.8929    -5.6012    -5.1322 H       
  49 H49            8.9742    -7.9877    -5.8007 H       
  50 H50            9.1199    -7.8134    -4.0353 H       
  51 H51            6.5537    -8.4663    -5.5536 H       
  52 H52            7.5324    -9.6254    -4.6227 H       
  53 H53            5.5411    -9.9459    -3.1671 H       
  54 H54            0.0467    -2.4838     2.1413 H       
@<TRIPOS>BOND
   1    1    2 1
   2    1   33 1
   3    1   34 1
   4    1   35 1
   5    2   32 ar
   6    2    3 ar
   7    3    4 ar
   8    3   36 1
   9    4    5 ar
  10    4   37 1
  11    5    6 1
  12    5   31 ar
  13    6    7 1
  14    6   38 1
  15    6   39 1
  16    7   21 ar
  17    7    8 ar
  18    8    9 ar
  19    8   40 1
  20    9   15 ar
  21    9   10 1
  22   10   11 2
  23   10   12 am
  24   12   13 1
  25   12   22 1
  26   13   14 2
  27   13   41 1
  28   14   15 1
  29   15   16 ar
  30   16   21 ar
  31   16   17 ar
  32   17   18 ar
  33   17   42 1
  34   18   19 ar
  35   18   43 1
  36   19   20 ar
  37   20   21 ar
  38   20   44 1
  39   22   23 1
  40   22   28 1
  41   22   24 1
  42   24   25 1
  43   24   45 1
  44   24   46 1
  45   25   26 1
  46   25   47 1
  47   25   48 1
  48   26   27 1
  49   26   49 1
  50   26   50 1
  51   27   28 1
  52   27   51 1
  53   27   52 1
  54   28   29 1
  55   28   30 1
  56   30   53 1
  57   31   32 ar
  58   31   54 1

#	End of record

