#	Name: ASD07300225
#	Creating user name:	WinNT
#	Creation time:	15. 06. 2019 21:09

#	Modifying user name:	WinNT
#	Modification time:	15. 06. 2019 21:09

#	Program:	/corina/corina34_cracker 3.40 0067  02.08.2006

@<TRIPOS>MOLECULE
ASD07300225
  56   61    0    0    0
SMALL
NO_CHARGES


@<TRIPOS>ATOM
   1 C1            -0.0184     1.5028     0.0103 C.2     
   2 C2             0.0021    -0.0041     0.0020 C.3     
   3 O3             1.0197     2.1211     0.0037 O.2     
   4 O4            -1.1898     2.1580     0.0194 O.3     
   5 C5             3.4215    -1.1633     0.6368 C.ar    
   6 C6             2.1733    -0.7411     1.1048 C.ar    
   7 C7             1.9491    -0.6675     2.4715 C.ar    
   8 C8             2.9837    -1.0196     3.3261 C.ar    
   9 C9             4.1922    -1.4282     2.7940 C.ar    
  10 N10            4.3787    -1.4887     1.4897 N.ar    
  11 C11            2.1295    -0.7137    -1.1132 C.2     
  12 N12            3.3563    -1.1333    -0.7516 N.am    
  13 N13            1.3897    -0.4735    -0.0138 N.am    
  14 O14            1.7457    -0.5763    -2.2596 O.2     
  15 C15            4.3947    -1.4814    -1.6284 C.ar    
  16 C16            4.1985    -1.4070    -3.0009 C.ar    
  17 C17            5.2202    -1.7494    -3.8639 C.ar    
  18 C18            6.4445    -2.1680    -3.3590 C.ar    
  19 C19            6.6407    -2.2419    -1.9860 C.ar    
  20 C20            5.6202    -1.8947    -1.1235 C.ar    
  21 C21            7.4074    -2.4836    -5.6145 C.2     
  22 N22            6.5321    -2.1809    -6.5570 N.2     
  23 C23            7.0873    -2.3706    -7.7800 C.ar    
  24 C24            8.3999    -2.8231    -7.5712 C.ar    
  25 N25            8.5703    -2.8835    -6.1967 N.pl3   
  26 C26            6.6163    -2.2072    -9.0854 C.ar    
  27 C27            7.4420    -2.4907   -10.1505 C.ar    
  28 C28            8.7375    -2.9373    -9.9378 C.ar    
  29 C29            9.2175    -3.1038    -8.6545 C.ar    
  30 N30            7.4805    -2.5157    -4.2339 N.pl3   
  31 C31            8.8153    -2.9719    -3.8311 C.3     
  32 C32            9.5522    -3.2230    -5.1574 C.3     
  33 C33           -1.1335     3.6089     0.0270 C.3     
  34 C34           -2.5551     4.1744     0.0369 C.3     
  35 H35           -0.4983    -0.3791     0.8948 H       
  36 H36           -0.5153    -0.3696    -0.8850 H       
  37 H37            0.9947    -0.3443     2.8601 H       
  38 H38            2.8464    -0.9746     4.3963 H       
  39 H39            4.9984    -1.7026     3.4583 H       
  40 H40            3.2465    -1.0815    -3.3934 H       
  41 H41            5.0673    -1.6922    -4.9315 H       
  42 H42            7.5926    -2.5673    -1.5932 H       
  43 H43            5.7739    -1.9485    -0.0558 H       
  44 H44            5.6084    -1.8602    -9.2584 H       
  45 H45            7.0776    -2.3647   -11.1593 H       
  46 H46            9.3748    -3.1565   -10.7818 H       
  47 H47           10.2274    -3.4519    -8.4950 H       
  48 H48            9.3215    -2.2012    -3.2497 H       
  49 H49            8.7447    -3.8968    -3.2587 H       
  50 H50            9.8436    -4.2703    -5.2374 H       
  51 H51           10.4268    -2.5772    -5.2353 H       
  52 H52           -0.6017     3.9472     0.9164 H       
  53 H53           -0.6102     3.9569    -0.8636 H       
  54 H54           -3.0869     3.8361    -0.8525 H       
  55 H55           -3.0784     3.8265     0.9275 H       
  56 H56           -2.5128     5.2636     0.0426 H       
@<TRIPOS>BOND
   1    1    2 1
   2    1    3 2
   3    1    4 1
   4    2   13 1
   5    2   35 1
   6    2   36 1
   7    4   33 1
   8    5    6 ar
   9    5   10 ar
  10    5   12 1
  11    6    7 ar
  12    6   13 1
  13    7    8 ar
  14    7   37 1
  15    8    9 ar
  16    8   38 1
  17    9   10 ar
  18    9   39 1
  19   11   12 am
  20   11   13 am
  21   11   14 2
  22   12   15 1
  23   15   16 ar
  24   15   20 ar
  25   16   17 ar
  26   16   40 1
  27   17   18 ar
  28   17   41 1
  29   18   19 ar
  30   18   30 1
  31   19   20 ar
  32   19   42 1
  33   20   43 1
  34   21   22 2
  35   21   25 1
  36   21   30 1
  37   22   23 1
  38   23   24 ar
  39   23   26 ar
  40   24   25 1
  41   24   29 ar
  42   25   32 1
  43   26   27 ar
  44   26   44 1
  45   27   28 ar
  46   27   45 1
  47   28   29 ar
  48   28   46 1
  49   29   47 1
  50   30   31 1
  51   31   32 1
  52   31   48 1
  53   31   49 1
  54   32   50 1
  55   32   51 1
  56   33   34 1
  57   33   52 1
  58   33   53 1
  59   34   54 1
  60   34   55 1
  61   34   56 1

#	End of record

