#	Name: ASD03731469
#	Creating user name:	WinNT
#	Creation time:	15. 06. 2019 20:45

#	Modifying user name:	WinNT
#	Modification time:	15. 06. 2019 20:45

#	Program:	/corina/corina34_cracker 3.40 0067  02.08.2006

@<TRIPOS>MOLECULE
ASD03731469
  57   61    0    0    0
SMALL
NO_CHARGES


@<TRIPOS>ATOM
   1 C1            -0.0184     1.5028     0.0103 C.2     
   2 C2             0.0021    -0.0041     0.0020 C.3     
   3 C3             1.4513    -0.4944    -0.0145 C.3     
   4 C4             1.4720    -2.0242    -0.0229 C.3     
   5 C5             2.9213    -2.5145    -0.0393 C.3     
   6 O6             1.0236     2.1234     0.0037 O.2     
   7 N7            -1.1946     2.1607     0.0195 N.am    
   8 C8            -1.2145     3.6256     0.0275 C.3     
   9 C9            -2.6637     4.1159     0.0371 C.3     
  10 C10           -2.6845     5.6457     0.0455 C.3     
  11 O11           -8.8979     2.7393     2.1988 O.3     
  12 C12          -10.3150     2.7928     2.4481 C.3     
  13 O13          -10.5201     4.1171     2.9744 O.3     
  14 C14           -9.5165     4.8794     2.4484 C.ar    
  15 C15           -8.5189     4.0315     1.9726 C.ar    
  16 C16           -9.3717     6.2503     2.3343 C.ar    
  17 C17           -8.2322     6.7925     1.7475 C.ar    
  18 C18           -7.2388     5.9357     1.2835 C.ar    
  19 C19           -7.3830     4.5682     1.3902 C.ar    
  20 O20           -7.9033     8.0972     1.5243 O.3     
  21 C21           -6.1403     6.8084     0.7378 C.3     
  22 C22           -6.4846     8.1968     1.2939 C.3     
  23 N23           -4.0722     6.1152     0.0546 N.am    
  24 C24           -4.7795     6.3508     1.1777 C.2     
  25 C25           -6.0970     6.8011    -0.7615 C.ar    
  26 C26           -7.0126     7.1140    -1.7413 C.ar    
  27 C27           -6.6642     7.0046    -3.0758 C.ar    
  28 C28           -5.3947     6.5797    -3.4231 C.ar    
  29 C29           -4.4744     6.2642    -2.4454 C.ar    
  30 C30           -4.8162     6.3718    -1.0995 C.ar    
  31 O31           -4.3925     6.2192     2.3196 O.2     
  32 H32           -0.4983    -0.3791     0.8948 H       
  33 H33           -0.5153    -0.3696    -0.8850 H       
  34 H34            1.9516    -0.1193    -0.9073 H       
  35 H35            1.9686    -0.1289     0.8726 H       
  36 H36            0.9717    -2.3993     0.8699 H       
  37 H37            0.9547    -2.3897    -0.9099 H       
  38 H38            2.9360    -3.6044    -0.0453 H       
  39 H39            3.4216    -2.1395    -0.9321 H       
  40 H40            3.4386    -2.1490     0.8477 H       
  41 H41           -2.0280     1.6644     0.0207 H       
  42 H42           -0.7014     3.9910     0.9171 H       
  43 H43           -0.7098     4.0007    -0.8628 H       
  44 H44           -3.1768     3.7505    -0.8525 H       
  45 H45           -3.1683     3.7408     0.9274 H       
  46 H46           -2.1714     6.0112     0.9350 H       
  47 H47           -2.1798     6.0209    -0.8449 H       
  48 H48          -10.8722     2.6586     1.5209 H       
  49 H49          -10.6034     2.0402     3.1818 H       
  50 H50          -10.1480     6.9043     2.7032 H       
  51 H51           -6.6078     3.9142     1.0188 H       
  52 H52           -6.2650     8.9729     0.5607 H       
  53 H53           -5.9530     8.3828     2.2271 H       
  54 H54           -8.0034     7.4455    -1.4678 H       
  55 H55           -7.3818     7.2508    -3.8445 H       
  56 H56           -5.1228     6.4942    -4.4648 H       
  57 H57           -3.4852     5.9325    -2.7244 H       
@<TRIPOS>BOND
   1    1    2 1
   2    1    6 2
   3    1    7 am
   4    2    3 1
   5    2   32 1
   6    2   33 1
   7    3    4 1
   8    3   34 1
   9    3   35 1
  10    4    5 1
  11    4   36 1
  12    4   37 1
  13    5   38 1
  14    5   39 1
  15    5   40 1
  16    7    8 1
  17    7   41 1
  18    8    9 1
  19    8   42 1
  20    8   43 1
  21    9   10 1
  22    9   44 1
  23    9   45 1
  24   10   23 1
  25   10   46 1
  26   10   47 1
  27   11   12 1
  28   11   15 1
  29   12   13 1
  30   12   48 1
  31   12   49 1
  32   13   14 1
  33   14   15 ar
  34   14   16 ar
  35   15   19 ar
  36   16   17 ar
  37   16   50 1
  38   17   18 ar
  39   17   20 1
  40   18   19 ar
  41   18   21 1
  42   19   51 1
  43   20   22 1
  44   21   22 1
  45   21   24 1
  46   21   25 1
  47   22   52 1
  48   22   53 1
  49   23   24 am
  50   23   30 1
  51   24   31 2
  52   25   26 ar
  53   25   30 ar
  54   26   27 ar
  55   26   54 1
  56   27   28 ar
  57   27   55 1
  58   28   29 ar
  59   28   56 1
  60   29   30 ar
  61   29   57 1

#	End of record

