#	Name: ASD01901470
#	Creating user name:	WinNT
#	Creation time:	15. 06. 2019 19:53

#	Modifying user name:	WinNT
#	Modification time:	15. 06. 2019 19:53

#	Program:	/corina/corina34_cracker 3.40 0067  02.08.2006

@<TRIPOS>MOLECULE
ASD01901470
  37   40    0    0    0
SMALL
NO_CHARGES


@<TRIPOS>ATOM
   1 C1            -0.0168     1.3903     0.0097 C.ar    
   2 C2             1.1753     2.0950     0.0021 C.ar    
   3 C3             2.3818     1.4161    -0.0131 C.ar    
   4 C4             2.4030     0.0329    -0.0207 C.ar    
   5 C5             1.2209    -0.6792    -0.0132 C.ar    
   6 C6             0.0021    -0.0041     0.0020 C.ar    
   7 C7            -1.2714    -0.7662     0.0106 C.2     
   8 N8            -3.1799    -1.5363    -1.1466 N.2     
   9 C9            -2.0561    -0.8622    -1.1592 C.2     
  10 C10           -1.6982    -1.3898     1.1495 C.2     
  11 N11           -2.8726    -2.0820     1.1228 N.pl3   
  12 C12           -3.6089    -2.1474    -0.0321 C.2     
  13 C13           -3.5498    -2.7951     2.0751 C.2     
  14 C14           -4.6687    -3.2740     1.4910 C.2     
  15 N15           -4.6907    -2.8718     0.2168 N.2     
  16 C16           -5.7187    -4.1198     2.1641 C.3     
  17 O17           -5.3500    -4.3418     3.5268 O.3     
  18 C18           -6.1952    -5.0910     4.2796 C.ar    
  19 C19           -7.3615    -5.6172     3.7325 C.ar    
  20 C20           -5.9138    -5.3573     5.6179 C.ar    
  21 C21           -6.7967    -6.1225     6.3507 C.ar    
  22 N22           -7.8966    -6.6012     5.7998 N.ar    
  23 C23           -8.1965    -6.3754     4.5327 C.ar    
  24 F24           -9.3317    -6.8916     4.0129 F       
  25 F25            1.1608     3.4459     0.0090 F       
  26 F26           -1.1947     2.0517     0.0301 F       
  27 H27            3.3099     1.9684    -0.0193 H       
  28 H28            3.3473    -0.4911    -0.0329 H       
  29 H29            1.2405    -1.7590    -0.0196 H       
  30 H30           -1.7293    -0.3779    -2.0676 H       
  31 H31           -1.1142    -1.3354     2.0563 H       
  32 H32           -3.2460    -2.9465     3.1003 H       
  33 H33           -6.6788    -3.6050     2.1267 H       
  34 H34           -5.7994    -5.0769     1.6490 H       
  35 H35           -7.6113    -5.4357     2.6976 H       
  36 H36           -5.0156    -4.9697     6.0755 H       
  37 H37           -6.5853    -6.3331     7.3886 H       
@<TRIPOS>BOND
   1    1    6 ar
   2    1    2 ar
   3    1   26 1
   4    2    3 ar
   5    2   25 1
   6    3    4 ar
   7    3   27 1
   8    4    5 ar
   9    4   28 1
  10    5    6 ar
  11    5   29 1
  12    6    7 1
  13    7   10 2
  14    7    9 1
  15    8    9 2
  16    8   12 1
  17    9   30 1
  18   10   11 1
  19   10   31 1
  20   11   13 1
  21   11   12 1
  22   12   15 2
  23   13   14 2
  24   13   32 1
  25   14   15 1
  26   14   16 1
  27   16   17 1
  28   16   33 1
  29   16   34 1
  30   17   18 1
  31   18   20 ar
  32   18   19 ar
  33   19   23 ar
  34   19   35 1
  35   20   21 ar
  36   20   36 1
  37   21   22 ar
  38   21   37 1
  39   22   23 ar
  40   23   24 1

#	End of record

