#	Name: ASD03091740
#	Creating user name:	WinNT
#	Creation time:	15. 06. 2019 20:31

#	Modifying user name:	WinNT
#	Modification time:	15. 06. 2019 20:31

#	Program:	/corina/corina34_cracker 3.40 0067  02.08.2006

@<TRIPOS>MOLECULE
ASD03091740
  43   45    0    0    0
SMALL
NO_CHARGES


@<TRIPOS>ATOM
   1 C1            -0.0188     1.5354     0.0105 C.3     
   2 C2             0.0021    -0.0041     0.0020 C.3     
   3 N3             0.0279    -0.4602     1.4021 N.3     
   4 C4             0.0781     0.7235     2.2834 C.3     
   5 C5            -0.5170     1.8802     1.4507 C.3     
   6 C6             0.2659     3.1734     1.7649 C.3     
   7 N7             1.5706     3.0168     1.1019 N.am    
   8 C8             1.4290     2.0576    -0.0005 C.3     
   9 C9             2.7084     3.6502     1.4495 C.2     
  10 O10            2.7100     4.4286     2.3848 O.2     
  11 C11            3.9449     3.4011     0.7002 C.2     
  12 O12            4.0759     2.5666    -0.3515 O.3     
  13 C13            5.1551     3.9779     0.9446 C.2     
  14 C14            6.0549     3.4523    -0.0124 C.2     
  15 C15            5.3406     2.5865    -0.7887 C.2     
  16 C16            7.4450     3.7703    -0.1437 C.1     
  17 C17            8.5846     4.0311    -0.2514 C.1     
  18 C18           10.0134     4.3581    -0.3864 C.3     
  19 C19           10.6103     3.5651    -1.5508 C.3     
  20 C20           12.0954     3.9049    -1.6911 C.3     
  21 C21           12.6923     3.1119    -2.8555 C.3     
  22 H22           -0.6324     1.9593    -0.7844 H       
  23 H23           -0.8919    -0.3828    -0.4934 H       
  24 H24            0.8918    -0.3585    -0.5184 H       
  25 H25           -0.7764    -1.0325     1.6108 H       
  26 H26           -0.5221     0.5543     3.1774 H       
  27 H27            1.1093     0.9470     2.5570 H       
  28 H28           -1.5995     1.9734     1.5378 H       
  29 H29           -0.2598     4.0393     1.3624 H       
  30 H30            0.4006     3.2803     2.8412 H       
  31 H31            2.1216     1.2279     0.1411 H       
  32 H32            1.6353     2.5530    -0.9493 H       
  33 H33            5.3829     4.6966     1.7180 H       
  34 H34            5.7305     2.0135    -1.6170 H       
  35 H35           10.1254     5.4252    -0.5783 H       
  36 H36           10.5343     4.0980     0.5351 H       
  37 H37           10.4983     2.4980    -1.3588 H       
  38 H38           10.0894     3.8251    -2.4723 H       
  39 H39           12.2074     4.9720    -1.8830 H       
  40 H40           12.6163     3.6448    -0.7696 H       
  41 H41           13.7503     3.3540    -2.9554 H       
  42 H42           12.5803     2.0448    -2.6636 H       
  43 H43           12.1714     3.3720    -3.7770 H       
@<TRIPOS>BOND
   1    1    2 1
   2    1    8 1
   3    1    5 1
   4    1   22 1
   5    2    3 1
   6    2   23 1
   7    2   24 1
   8    3    4 1
   9    3   25 1
  10    4    5 1
  11    4   26 1
  12    4   27 1
  13    5    6 1
  14    5   28 1
  15    6    7 1
  16    6   29 1
  17    6   30 1
  18    7    8 1
  19    7    9 am
  20    8   31 1
  21    8   32 1
  22    9   10 2
  23    9   11 1
  24   11   12 1
  25   11   13 2
  26   12   15 1
  27   13   14 1
  28   13   33 1
  29   14   15 2
  30   14   16 1
  31   15   34 1
  32   16   17 3
  33   17   18 1
  34   18   19 1
  35   18   35 1
  36   18   36 1
  37   19   20 1
  38   19   37 1
  39   19   38 1
  40   20   21 1
  41   20   39 1
  42   20   40 1
  43   21   41 1
  44   21   42 1
  45   21   43 1

#	End of record

