#	Name: ASD01148360
#	Creating user name:	WinNT
#	Creation time:	15. 06. 2019 19:02

#	Modifying user name:	WinNT
#	Modification time:	15. 06. 2019 19:02

#	Program:	/corina/corina34_cracker 3.40 0067  02.08.2006

@<TRIPOS>MOLECULE
ASD01148360
  47   49    0    0    0
SMALL
NO_CHARGES


@<TRIPOS>ATOM
   1 C1            -0.4099     1.8311    -0.0438 C.ar    
   2 C2            -0.4709     0.4507     0.0162 C.ar    
   3 C3             0.6962    -0.2904     0.0954 C.ar    
   4 C4             1.9216     0.3506     0.1144 C.ar    
   5 C5             1.9808     1.7305     0.0544 C.ar    
   6 C6             0.8158     2.4703    -0.0246 C.ar    
   7 C7             3.3162     2.4286     0.0752 C.3     
   8 O8             4.3315     1.6193    -0.5523 O.3     
   9 C9             3.3018     3.6789    -0.8363 C.3     
  10 C10            3.8438     3.1383    -2.1459 C.2     
  11 N11            4.3961     1.9948    -1.9139 N.2     
  12 C12            3.7549     3.8051    -3.4597 C.ar    
  13 C13            4.2991     3.1932    -4.5922 C.ar    
  14 C14            3.1217     5.0454    -3.5722 C.ar    
  15 C15            3.0388     5.6673    -4.7975 C.ar    
  16 C16            3.5879     5.0583    -5.9286 C.ar    
  17 C17            4.2163     3.8151    -5.8171 C.ar    
  18 C18            3.4990     5.7257    -7.2435 C.2     
  19 O19            4.0715     5.2520    -8.2055 O.2     
  20 N20            2.7832     6.8599    -7.3765 N.am    
  21 C21            4.8091     3.1584    -7.0371 C.3     
  22 C22            3.7161     2.7971     1.5053 C.3     
  23 F23            3.7879     1.6366     2.2832 F       
  24 F24            4.9647     3.4279     1.4925 F       
  25 F25            2.7613     3.6638     2.0479 F       
  26 Cl26           0.6212    -2.0231     0.1712 Cl      
  27 Cl27          -2.0098    -0.3523    -0.0073 Cl      
  28 C28            2.7000     7.4841    -8.6062 C.2     
  29 N29            3.3080     6.9810    -9.6279 N.2     
  30 O30            3.2227     7.6207   -10.8883 O.3     
  31 C31            3.9430     6.9553   -11.9277 C.3     
  32 H32           -1.3195     2.4095    -0.1100 H       
  33 H33            2.8321    -0.2268     0.1765 H       
  34 H34            0.8632     3.5482    -0.0714 H       
  35 H35            2.2862     4.0536    -0.9632 H       
  36 H36            3.9550     4.4554    -0.4384 H       
  37 H37            4.7850     2.2326    -4.5060 H       
  38 H38            2.6969     5.5160    -2.6979 H       
  39 H39            2.5490     6.6259    -4.8846 H       
  40 H40            2.3264     7.2379    -6.6088 H       
  41 H41            5.8058     3.5607    -7.2181 H       
  42 H42            4.8754     2.0826    -6.8746 H       
  43 H43            4.1747     3.3569    -7.9010 H       
  44 H44            2.1264     8.3929    -8.7128 H       
  45 H45            4.9993     6.9052   -11.6633 H       
  46 H46            3.5514     5.9458   -12.0524 H       
  47 H47            3.8278     7.5074   -12.8605 H       
@<TRIPOS>BOND
   1    1    2 ar
   2    1    6 ar
   3    1   32 1
   4    2    3 ar
   5    2   27 1
   6    3    4 ar
   7    3   26 1
   8    4    5 ar
   9    4   33 1
  10    5    6 ar
  11    5    7 1
  12    6   34 1
  13    7    8 1
  14    7    9 1
  15    7   22 1
  16    8   11 1
  17    9   10 1
  18    9   35 1
  19    9   36 1
  20   10   11 2
  21   10   12 1
  22   12   13 ar
  23   12   14 ar
  24   13   17 ar
  25   13   37 1
  26   14   15 ar
  27   14   38 1
  28   15   16 ar
  29   15   39 1
  30   16   17 ar
  31   16   18 1
  32   17   21 1
  33   18   19 2
  34   18   20 am
  35   20   28 1
  36   20   40 1
  37   21   41 1
  38   21   42 1
  39   21   43 1
  40   22   23 1
  41   22   24 1
  42   22   25 1
  43   28   29 2
  44   28   44 1
  45   29   30 1
  46   30   31 1
  47   31   45 1
  48   31   46 1
  49   31   47 1

#	End of record

