#	Name: ASD01915592
#	Creating user name:	WinNT
#	Creation time:	15. 06. 2019 20:05

#	Modifying user name:	WinNT
#	Modification time:	15. 06. 2019 20:05

#	Program:	/corina/corina34_cracker 3.40 0067  02.08.2006

@<TRIPOS>MOLECULE
ASD01915592
  42   45    0    0    0
SMALL
NO_CHARGES


@<TRIPOS>ATOM
   1 C1            -0.0166     1.3728     0.0096 C.2     
   2 N2             0.0021    -0.0041     0.0020 N.pl3   
   3 C3            -1.2433    -0.7807    -0.0179 C.3     
   4 C4            -2.3411     0.0068     0.6954 C.3     
   5 N5            -2.4043     1.3988     0.2637 N.am    
   6 C6            -1.2812     2.1228     0.0393 C.2     
   7 C7             1.2846     1.7904    -0.0006 C.2     
   8 C8             2.0437     0.6125    -0.0024 C.2     
   9 N9             1.2133    -0.4042     0.0045 N.2     
  10 C10            3.5483     0.5278    -0.0116 C.3     
  11 O11            4.0995     1.8462    -0.0185 O.3     
  12 C12            5.4546     1.9482    -0.0273 C.ar    
  13 O13           -1.3170     3.3270    -0.1285 O.2     
  14 C14            6.0573     3.1978    -0.0343 C.ar    
  15 C15            6.2377     0.8031    -0.0236 C.ar    
  16 C16            7.6150     0.9095    -0.0326 C.ar    
  17 C17            8.2132     2.1560    -0.0453 C.ar    
  18 C18            7.4350     3.2989    -0.0433 C.ar    
  19 C19           -3.6486     1.9977     0.0773 C.ar    
  20 C20           -4.8142     1.3056     0.4013 C.ar    
  21 C21           -6.0270     1.9458     0.1977 C.ar    
  22 C22           -6.0061     3.2346    -0.3155 C.ar    
  23 N23           -4.8552     3.8146    -0.5943 N.ar    
  24 N24           -3.7289     3.2295    -0.4035 N.ar    
  25 C25           -7.3297     1.2618     0.5237 C.3     
  26 H26           -1.5404    -0.9656    -1.0502 H       
  27 H27           -1.0875    -1.7313     0.4922 H       
  28 H28           -3.3017    -0.4680     0.4955 H       
  29 H29           -2.1536    -0.0209     1.7688 H       
  30 H30            1.6487     2.8072    -0.0064 H       
  31 H31            3.8878    -0.0034     0.8776 H       
  32 H32            3.8765    -0.0079    -0.9023 H       
  33 H33            5.4499     4.0908    -0.0331 H       
  34 H34            5.7710    -0.1708    -0.0133 H       
  35 H35            8.2251     0.0183    -0.0293 H       
  36 H36            9.2901     2.2371    -0.0524 H       
  37 H37            7.9046     4.2714    -0.0536 H       
  38 H38           -4.7739     0.3020     0.7982 H       
  39 H39           -6.9324     3.7627    -0.4869 H       
  40 H40           -7.6039     1.4758     1.5567 H       
  41 H41           -8.1098     1.6292    -0.1429 H       
  42 H42           -7.2175     0.1854     0.3932 H       
@<TRIPOS>BOND
   1    1    2 1
   2    1    7 2
   3    1    6 1
   4    2    3 1
   5    2    9 1
   6    3    4 1
   7    3   26 1
   8    3   27 1
   9    4    5 1
  10    4   28 1
  11    4   29 1
  12    5    6 am
  13    5   19 1
  14    6   13 2
  15    7    8 1
  16    7   30 1
  17    8    9 2
  18    8   10 1
  19   10   11 1
  20   10   31 1
  21   10   32 1
  22   11   12 1
  23   12   14 ar
  24   12   15 ar
  25   14   18 ar
  26   14   33 1
  27   15   16 ar
  28   15   34 1
  29   16   17 ar
  30   16   35 1
  31   17   18 ar
  32   17   36 1
  33   18   37 1
  34   19   20 ar
  35   19   24 ar
  36   20   21 ar
  37   20   38 1
  38   21   22 ar
  39   21   25 1
  40   22   23 ar
  41   22   39 1
  42   23   24 ar
  43   25   40 1
  44   25   41 1
  45   25   42 1

#	End of record

