#	Name: ASD01028504
#	Creating user name:	WinNT
#	Creation time:	15. 06. 2019 18:57

#	Modifying user name:	WinNT
#	Modification time:	15. 06. 2019 18:57

#	Program:	/corina/corina34_cracker 3.40 0067  02.08.2006

@<TRIPOS>MOLECULE
ASD01028504
  46   50    0    0    0
SMALL
NO_CHARGES


@<TRIPOS>ATOM
   1 C1            -0.0171     1.4092     0.0098 C.ar    
   2 C2             0.0021    -0.0041     0.0020 C.ar    
   3 C3             1.2167     2.1056     0.0017 C.ar    
   4 C4             2.3834     1.3605    -0.0134 C.ar    
   5 C5             2.3151    -0.0269    -0.0203 C.ar    
   6 N6             1.1661    -0.6612    -0.0123 N.ar    
   7 N7             1.2546     3.4934     0.0084 N.pl3   
   8 C8             2.5427     4.1911    -0.0001 C.3     
   9 C9             2.3079     5.6797     0.0097 C.2     
  10 N10            2.1939     6.4616     1.1053 N.pl3   
  11 C11            1.9883     7.7388     0.6401 C.2     
  12 N12            1.9879     7.6695    -0.6811 N.2     
  13 N13            2.1831     6.4494    -1.0427 N.2     
  14 N14            2.2440     6.2164     2.4791 N.2     
  15 C15            2.0956     7.2010     3.3378 C.2     
  16 C16            1.8827     8.5226     2.8914 C.2     
  17 C17            1.8307     8.7924     1.5604 C.2     
  18 C18           -1.2243    -0.6998     0.0101 C.ar    
  19 C19           -2.3792     0.0243     0.0251 C.ar    
  20 C20           -2.3267     1.4230     0.0320 C.ar    
  21 N21           -1.1788     2.0661     0.0299 N.ar    
  22 C22            2.1522     6.9190     4.7930 C.ar    
  23 C23            2.3615     5.6173     5.2446 C.ar    
  24 C24            2.2584     6.3921     7.5126 C.ar    
  25 C25            2.0556     7.6898     7.0667 C.ar    
  26 C26            2.0019     7.9561     5.7118 C.ar    
  27 O27           -3.4837     2.1304     0.0464 O.3     
  28 C28           -3.3729     3.5551     0.0530 C.3     
  29 F29            2.3099     6.1353     8.8380 F       
  30 F30            1.9100     8.6945     7.9581 F       
  31 C31            2.4141     5.3584     6.6010 C.ar    
  32 F32            2.6169     4.0968     7.0397 F       
  33 H33            3.3430     1.8559    -0.0203 H       
  34 H34            3.2313    -0.5986    -0.0326 H       
  35 H35            0.4281     4.0011     0.0188 H       
  36 H36            3.1152     3.9078     0.8831 H       
  37 H37            3.0985     3.9169    -0.8967 H       
  38 H38            1.7622     9.3211     3.6086 H       
  39 H39            1.6680     9.8020     1.2131 H       
  40 H40           -1.2481    -1.7795     0.0042 H       
  41 H41           -3.3338    -0.4808     0.0312 H       
  42 H42            2.4821     4.8118     4.5354 H       
  43 H43            1.8440     8.9667     5.3653 H       
  44 H44           -2.8243     3.8728     0.9396 H       
  45 H45           -2.8407     3.8823    -0.8402 H       
  46 H46           -4.3693     3.9969     0.0645 H       
@<TRIPOS>BOND
   1    1    2 ar
   2    1    3 ar
   3    1   21 ar
   4    2   18 ar
   5    2    6 ar
   6    3    4 ar
   7    3    7 1
   8    4    5 ar
   9    4   33 1
  10    5    6 ar
  11    5   34 1
  12    7    8 1
  13    7   35 1
  14    8    9 1
  15    8   36 1
  16    8   37 1
  17    9   10 1
  18    9   13 2
  19   10   11 1
  20   10   14 1
  21   11   12 2
  22   11   17 1
  23   12   13 1
  24   14   15 2
  25   15   16 1
  26   15   22 1
  27   16   17 2
  28   16   38 1
  29   17   39 1
  30   18   19 ar
  31   18   40 1
  32   19   20 ar
  33   19   41 1
  34   20   21 ar
  35   20   27 1
  36   22   23 ar
  37   22   26 ar
  38   23   31 ar
  39   23   42 1
  40   24   25 ar
  41   24   29 1
  42   24   31 ar
  43   25   26 ar
  44   25   30 1
  45   26   43 1
  46   27   28 1
  47   28   44 1
  48   28   45 1
  49   28   46 1
  50   31   32 1

#	End of record

