#	Name: ASD03090549
#	Creating user name:	WinNT
#	Creation time:	15. 06. 2019 20:29

#	Modifying user name:	WinNT
#	Modification time:	15. 06. 2019 20:29

#	Program:	/corina/corina34_cracker 3.40 0067  02.08.2006

@<TRIPOS>MOLECULE
ASD03090549
  48   51    0    0    0
SMALL
NO_CHARGES


@<TRIPOS>ATOM
   1 C1             0.0088     1.1251     0.1328 C.ar    
   2 C2            -0.0347    -0.2694     0.0978 C.ar    
   3 C3             1.1694    -0.9834     0.0922 C.ar    
   4 C4             2.3550    -0.2702     0.1219 C.ar    
   5 C5             2.3130     1.1119     0.1557 C.ar    
   6 N6             1.1628     1.7585     0.1601 N.ar    
   7 C7            -1.3305    -0.9805     0.0675 C.2     
   8 O8            -1.3565    -2.1953     0.0372 O.2     
   9 N9            -2.4829    -0.2817     0.0737 N.am    
  10 C10            3.6020     1.8920     0.1881 C.3     
  11 F11            4.0142     2.1661    -1.1204 F       
  12 F12            3.4025     3.0939     0.8756 F       
  13 F13            4.5859     1.1401     0.8391 F       
  14 C14           -3.7670    -0.9864     0.0437 C.3     
  15 N15           -7.9678     2.7719    -0.2024 N.pl3   
  16 C16           -8.0768     2.9150    -1.5588 C.2     
  17 C17           -7.1765     2.1322    -2.1742 C.2     
  18 C18           -6.4315     1.4319    -1.1246 C.ar    
  19 C19           -5.3890     0.5016    -1.1319 C.ar    
  20 C20           -4.8911     0.0172     0.0577 C.ar    
  21 C21           -5.4154     0.4443     1.2665 C.ar    
  22 C22           -6.4537     1.3699     1.2984 C.ar    
  23 C23           -6.9719     1.8730     0.0948 C.ar    
  24 C24           -9.0614     3.8168    -2.2578 C.3     
  25 F25           -8.4884     5.0799    -2.4408 F       
  26 F26           -9.3924     3.2701    -3.5023 F       
  27 F27          -10.2174     3.9375    -1.4792 F       
  28 C28           -7.0074     1.8211     2.5919 C.2     
  29 N29           -7.2453     3.0682     2.9347 N.2     
  30 C30           -7.7441     3.0972     4.1762 C.2     
  31 C31           -7.8241     1.8310     4.6324 C.2     
  32 N32           -7.3649     1.0146     3.6330 N.pl3   
  33 C33           -7.2724    -0.4469     3.6749 C.3     
  34 H34           -0.9119     1.6896     0.1330 H       
  35 H35            1.1729    -2.0631     0.0658 H       
  36 H36            3.3031    -0.7874     0.1190 H       
  37 H37           -2.4622     0.6878     0.0979 H       
  38 H38           -3.8294    -1.5894    -0.8621 H       
  39 H39           -3.8467    -1.6335     0.9172 H       
  40 H40           -8.5102     3.2388     0.4523 H       
  41 H41           -7.0293     2.0368    -3.2399 H       
  42 H42           -4.9742     0.1621    -2.0695 H       
  43 H43           -5.0154     0.0556     2.1914 H       
  44 H44           -8.0329     3.9842     4.7204 H       
  45 H45           -8.1862     1.5191     5.6009 H       
  46 H46           -6.2673    -0.7387     3.9794 H       
  47 H47           -7.9963    -0.8364     4.3906 H       
  48 H48           -7.4846    -0.8529     2.6859 H       
@<TRIPOS>BOND
   1    1    2 ar
   2    1    6 ar
   3    1   34 1
   4    2    3 ar
   5    2    7 1
   6    3    4 ar
   7    3   35 1
   8    4    5 ar
   9    4   36 1
  10    5    6 ar
  11    5   10 1
  12    7    8 2
  13    7    9 am
  14    9   14 1
  15    9   37 1
  16   10   11 1
  17   10   12 1
  18   10   13 1
  19   14   20 1
  20   14   38 1
  21   14   39 1
  22   15   16 1
  23   15   23 1
  24   15   40 1
  25   16   17 2
  26   16   24 1
  27   17   18 1
  28   17   41 1
  29   18   19 ar
  30   18   23 ar
  31   19   20 ar
  32   19   42 1
  33   20   21 ar
  34   21   22 ar
  35   21   43 1
  36   22   23 ar
  37   22   28 1
  38   24   25 1
  39   24   26 1
  40   24   27 1
  41   28   29 2
  42   28   32 1
  43   29   30 1
  44   30   31 2
  45   30   44 1
  46   31   32 1
  47   31   45 1
  48   32   33 1
  49   33   46 1
  50   33   47 1
  51   33   48 1

#	End of record

