#	Name: ASD02562097
#	Creating user name:	WinNT
#	Creation time:	15. 06. 2019 20:25

#	Modifying user name:	WinNT
#	Modification time:	15. 06. 2019 20:25

#	Program:	/corina/corina34_cracker 3.40 0067  02.08.2006

@<TRIPOS>MOLECULE
ASD02562097
  48   51    0    0    0
SMALL
NO_CHARGES


@<TRIPOS>ATOM
   1 C1             0.0867     1.8413    -0.8008 C.ar    
   2 N2             0.5147     0.8978    -1.6236 N.ar    
   3 C3            -0.2144     0.5347    -2.6741 C.ar    
   4 C4            -1.4485     1.1658    -2.9019 C.ar    
   5 C5            -1.8633     2.1629    -2.0015 C.ar    
   6 N6            -1.0745     2.4597    -0.9748 N.ar    
   7 N7            -3.0704     2.8174    -2.1781 N.pl3   
   8 N8             0.8759     2.1921     0.2838 N.pl3   
   9 C9            -3.5224     3.7239    -1.2131 C.ar    
  10 C10            2.0713     1.5168     0.5231 C.ar    
  11 C11            3.2855     2.1807     0.3727 C.ar    
  12 C12           -4.2676     4.8319    -1.5948 C.ar    
  13 C13           -4.7132     5.7252    -0.6405 C.ar    
  14 C14           -4.4174     5.5168     0.6962 C.ar    
  15 C15           -3.6745     4.4128     1.0790 C.ar    
  16 C16           -3.2313     3.5140     0.1286 C.ar    
  17 C17            2.0475     0.1821     0.9173 C.ar    
  18 C18            3.2255    -0.4884     1.1551 C.ar    
  19 C19            4.4490     0.1738     0.9995 C.ar    
  20 C20            4.4682     1.5177     0.6080 C.ar    
  21 C21            3.3048     3.6274    -0.0488 C.3     
  22 C22            0.7297    -0.5296     1.0844 C.3     
  23 C23            5.7098    -0.5383     1.2524 C.2     
  24 C24            6.8887     0.1021     1.1018 C.2     
  25 C25            8.1170    -0.5917     1.3482 C.1     
  26 N26            9.0914    -1.1420     1.5436 N.1     
  27 N27           -0.0638    -0.3789    -3.6866 N.pl3   
  28 C28           -1.1676    -0.2914    -4.4836 C.2     
  29 N29           -1.9783     0.6152    -4.0214 N.2     
  30 F30           -4.8539     6.3922     1.6280 F       
  31 H31           -3.6028     2.6474    -2.9709 H       
  32 H32            0.5961     2.9076     0.8760 H       
  33 H33           -4.4983     4.9950    -2.6372 H       
  34 H34           -5.2925     6.5872    -0.9369 H       
  35 H35           -3.4446     4.2523     2.1220 H       
  36 H36           -2.6523     2.6528     0.4276 H       
  37 H37            3.2061    -1.5238     1.4616 H       
  38 H38            5.4100     2.0323     0.4868 H       
  39 H39            3.2743     4.2639     0.8355 H       
  40 H40            4.2165     3.8299    -0.6109 H       
  41 H41            2.4377     3.8348    -0.6759 H       
  42 H42            0.4902    -1.0704     0.1688 H       
  43 H43            0.7993    -1.2330     1.9142 H       
  44 H44           -0.0536     0.1997     1.2910 H       
  45 H45            5.6931    -1.5739     1.5586 H       
  46 H46            6.9054     1.1376     0.7956 H       
  47 H47            0.6894    -0.9769    -3.8128 H       
  48 H48           -1.3425    -0.8865    -5.3677 H       
@<TRIPOS>BOND
   1    1    2 ar
   2    1    8 1
   3    1    6 ar
   4    2    3 ar
   5    3    4 ar
   6    3   27 1
   7    4    5 ar
   8    4   29 1
   9    5    6 ar
  10    5    7 1
  11    7    9 1
  12    7   31 1
  13    8   10 1
  14    8   32 1
  15    9   12 ar
  16    9   16 ar
  17   10   11 ar
  18   10   17 ar
  19   11   21 1
  20   11   20 ar
  21   12   13 ar
  22   12   33 1
  23   13   14 ar
  24   13   34 1
  25   14   15 ar
  26   14   30 1
  27   15   16 ar
  28   15   35 1
  29   16   36 1
  30   17   18 ar
  31   17   22 1
  32   18   19 ar
  33   18   37 1
  34   19   20 ar
  35   19   23 1
  36   20   38 1
  37   21   39 1
  38   21   40 1
  39   21   41 1
  40   22   42 1
  41   22   43 1
  42   22   44 1
  43   23   24 2
  44   23   45 1
  45   24   25 1
  46   24   46 1
  47   25   26 3
  48   27   28 1
  49   27   47 1
  50   28   29 2
  51   28   48 1

#	End of record

