#	Name: ASD01917556
#	Creating user name:	WinNT
#	Creation time:	15. 06. 2019 20:09

#	Modifying user name:	WinNT
#	Modification time:	15. 06. 2019 20:09

#	Program:	/corina/corina34_cracker 3.40 0067  02.08.2006

@<TRIPOS>MOLECULE
ASD01917556
  49   52    0    0    0
SMALL
NO_CHARGES


@<TRIPOS>ATOM
   1 C1            -0.0249     1.4512     0.2910 C.ar    
   2 C2            -0.0025     0.0594     0.3639 C.ar    
   3 C3             1.2205    -0.6146     0.4131 C.ar    
   4 C4             2.4042     0.0950     0.3898 C.ar    
   5 C5             2.3886     1.4742     0.3176 C.ar    
   6 C6             1.1738     2.1604     0.2678 C.ar    
   7 C7             1.1600     3.5904     0.1926 C.1     
   8 C8             1.1487     4.7627     0.1309 C.1     
   9 C9             1.1346     6.2326     0.0536 C.3     
  10 C10           -1.2299    -0.6778     0.3886 C.1     
  11 N11            2.5167     6.7346     0.0435 N.3     
  12 C12            2.5525     8.1986    -0.0629 C.3     
  13 C13            1.8283     8.8234     1.1335 C.3     
  14 C14            0.3816     8.3270     1.1748 C.3     
  15 C15            0.3849     6.7976     1.2606 C.3     
  16 C16            3.2700     6.1038    -1.0517 C.3     
  17 C17            4.7204     6.5881    -1.0274 C.3     
  18 N18            4.7401     8.0518    -1.1650 N.3     
  19 C19            4.0055     8.6826    -0.0611 C.3     
  20 C20            6.0385     8.5262    -1.2318 C.ar    
  21 N21            6.8630     8.3337    -0.2141 N.ar    
  22 C22            8.1077     8.7691    -0.2366 C.ar    
  23 C23            8.6094     9.4503    -1.3311 C.ar    
  24 C24            7.7922     9.6803    -2.4238 C.ar    
  25 C25            6.4765     9.2049    -2.3820 C.ar    
  26 C26            5.5912     9.4107    -3.4886 C.1     
  27 N27           -2.2036    -1.2627     0.4083 N.1     
  28 N28            4.8890     9.5740    -4.3665 N.1     
  29 H29           -0.9672     1.9771     0.2482 H       
  30 H30            1.2396    -1.6929     0.4700 H       
  31 H31            3.3468    -0.4306     0.4284 H       
  32 H32            3.3185     2.0232     0.2997 H       
  33 H33            0.6302     6.5422    -0.8618 H       
  34 H34            2.0640     8.5086    -0.9866 H       
  35 H35            2.3363     8.5380     2.0546 H       
  36 H36            1.8368     9.9090     1.0363 H       
  37 H37           -0.1215     8.7407     2.0487 H       
  38 H38           -0.1381     8.6408     0.2695 H       
  39 H39           -0.6413     6.4299     1.2574 H       
  40 H40            0.8829     6.4849     2.1784 H       
  41 H41            3.2474     5.0208    -0.9305 H       
  42 H42            2.8147     6.3706    -2.0055 H       
  43 H43            5.1837     6.3044    -0.0824 H       
  44 H44            5.2693     6.1368    -1.8540 H       
  45 H45            4.0269     9.7655    -0.1836 H       
  46 H46            4.4751     8.4163     0.8858 H       
  47 H47            8.7470     8.5909     0.6155 H       
  48 H48            9.6311     9.8002    -1.3325 H       
  49 H49            8.1619    10.2101    -3.2894 H       
@<TRIPOS>BOND
   1    1    2 ar
   2    1    6 ar
   3    1   29 1
   4    2    3 ar
   5    2   10 1
   6    3    4 ar
   7    3   30 1
   8    4    5 ar
   9    4   31 1
  10    5    6 ar
  11    5   32 1
  12    6    7 1
  13    7    8 3
  14    8    9 1
  15    9   11 1
  16    9   15 1
  17    9   33 1
  18   10   27 3
  19   11   16 1
  20   11   12 1
  21   12   13 1
  22   12   19 1
  23   12   34 1
  24   13   14 1
  25   13   35 1
  26   13   36 1
  27   14   15 1
  28   14   37 1
  29   14   38 1
  30   15   39 1
  31   15   40 1
  32   16   17 1
  33   16   41 1
  34   16   42 1
  35   17   18 1
  36   17   43 1
  37   17   44 1
  38   18   19 1
  39   18   20 1
  40   19   45 1
  41   19   46 1
  42   20   21 ar
  43   20   25 ar
  44   21   22 ar
  45   22   23 ar
  46   22   47 1
  47   23   24 ar
  48   23   48 1
  49   24   25 ar
  50   24   49 1
  51   25   26 1
  52   26   28 3

#	End of record

