#	Name: ASD00069166
#	Creating user name:	WinNT
#	Creation time:	15. 06. 2019 18:29

#	Modifying user name:	WinNT
#	Modification time:	15. 06. 2019 18:29

#	Program:	/corina/corina34_cracker 3.40 0067  02.08.2006

@<TRIPOS>MOLECULE
ASD00069166
  64   67    0    0    0
SMALL
NO_CHARGES


@<TRIPOS>ATOM
   1 N1            -0.0430     1.4336    -0.0045 N.3     
   2 C2            -0.0432    -0.0348    -0.0128 C.3     
   3 C3             0.6597    -0.5535     1.2438 C.3     
   4 C4             2.0965    -0.0249     1.2739 C.3     
   5 C5             2.0699     1.5055     1.2329 C.3     
   6 C6             1.3261     1.9645    -0.0233 C.3     
   7 C7             2.7752    -0.4831     2.5390 C.2     
   8 O8             2.1704    -1.1654     3.3387 O.2     
   9 N9             4.0544    -0.1346     2.7816 N.am    
  10 C10            4.7142    -0.5800     4.0114 C.3     
  11 C11            6.1496    -0.0513     4.0403 C.3     
  12 C12            6.8388    -0.5164     5.3247 C.3     
  13 O13            6.8643    -0.5512     2.9084 O.3     
  14 F14            6.8560    -1.9148     5.3645 F       
  15 F15            8.1513    -0.0329     5.3511 F       
  16 F16            6.1391    -0.0270     6.4329 F       
  17 C17           -0.7931     1.9418    -1.0728 C.ar    
  18 C18           -0.4376     1.6378    -2.3806 C.ar    
  19 C19           -1.1807     2.1415    -3.4336 C.ar    
  20 C20           -2.2776     2.9474    -3.1877 C.ar    
  21 C21           -2.6378     3.2543    -1.8893 C.ar    
  22 C22           -1.9022     2.7493    -0.8265 C.ar    
  23 N23           -2.2700     3.0546     0.4898 N.am    
  24 C24           -2.8029     4.2584     0.7787 C.2     
  25 O25           -2.8697     5.1160    -0.0811 O.2     
  26 C26           -3.3047     4.5356     2.1369 C.2     
  27 N27           -3.2881     3.6953     3.1476 N.2     
  28 C28           -3.8241     4.2918     4.2198 C.2     
  29 C29           -4.1902     5.5590     3.8599 C.2     
  30 N30           -3.8601     5.7121     2.5581 N.pl3   
  31 C31           -3.7519     1.8470     7.0774 C.ar    
  32 C32           -3.5777     2.3731     5.8140 C.ar    
  33 C33           -3.9919     3.6842     5.5625 C.ar    
  34 C34           -4.5682     4.4075     6.6111 C.ar    
  35 C35           -4.7049     3.8045     7.8439 C.ar    
  36 N36           -4.3005     2.5637     8.0397 N.ar    
  37 C37           -3.3155     0.4326     7.3604 C.3     
  38 F38            0.6335     0.8513    -2.6244 F       
  39 H39           -1.0709    -0.3977    -0.0300 H       
  40 H40            0.4832    -0.3931    -0.8974 H       
  41 H41            0.1259    -0.2070     2.1287 H       
  42 H42            0.6731    -1.6433     1.2297 H       
  43 H43            2.6419    -0.4030     0.4093 H       
  44 H44            1.5582     1.8844     2.1176 H       
  45 H45            3.0908     1.8868     1.2110 H       
  46 H46            1.8460     1.5968    -0.9079 H       
  47 H47            1.2929     3.0537    -0.0482 H       
  48 H48            4.5381     0.4111     2.1420 H       
  49 H49            4.1691    -0.1987     4.8749 H       
  50 H50            4.7277    -1.6695     4.0424 H       
  51 H51            6.1362     1.0382     4.0093 H       
  52 H52            6.9164    -1.5161     2.8709 H       
  53 H53           -0.9033     1.9050    -4.4502 H       
  54 H54           -2.8542     3.3383    -4.0130 H       
  55 H55           -3.4948     3.8842    -1.7016 H       
  56 H56           -2.1413     2.3997     1.1937 H       
  57 H57           -4.6521     6.2992     4.4965 H       
  58 H58           -3.9942     6.5088     2.0213 H       
  59 H59           -3.1275     1.7808     5.0311 H       
  60 H60           -4.9010     5.4235     6.4581 H       
  61 H61           -5.1485     4.3554     8.6601 H       
  62 H62           -2.2795     0.4329     7.6992 H       
  63 H63           -3.9511     0.0044     8.1355 H       
  64 H64           -3.4003    -0.1626     6.4512 H       
@<TRIPOS>BOND
   1    1    2 1
   2    1    6 1
   3    1   17 1
   4    2    3 1
   5    2   39 1
   6    2   40 1
   7    3    4 1
   8    3   41 1
   9    3   42 1
  10    4    5 1
  11    4    7 1
  12    4   43 1
  13    5    6 1
  14    5   44 1
  15    5   45 1
  16    6   46 1
  17    6   47 1
  18    7    8 2
  19    7    9 am
  20    9   10 1
  21    9   48 1
  22   10   11 1
  23   10   49 1
  24   10   50 1
  25   11   12 1
  26   11   13 1
  27   11   51 1
  28   12   14 1
  29   12   15 1
  30   12   16 1
  31   13   52 1
  32   17   18 ar
  33   17   22 ar
  34   18   19 ar
  35   18   38 1
  36   19   20 ar
  37   19   53 1
  38   20   21 ar
  39   20   54 1
  40   21   22 ar
  41   21   55 1
  42   22   23 1
  43   23   24 am
  44   23   56 1
  45   24   25 2
  46   24   26 1
  47   26   27 2
  48   26   30 1
  49   27   28 1
  50   28   29 2
  51   28   33 1
  52   29   30 1
  53   29   57 1
  54   30   58 1
  55   31   32 ar
  56   31   36 ar
  57   31   37 1
  58   32   33 ar
  59   32   59 1
  60   33   34 ar
  61   34   35 ar
  62   34   60 1
  63   35   36 ar
  64   35   61 1
  65   37   62 1
  66   37   63 1
  67   37   64 1

#	End of record

