#	Name: ASD01901177
#	Creating user name:	WinNT
#	Creation time:	15. 06. 2019 19:53

#	Modifying user name:	WinNT
#	Modification time:	15. 06. 2019 19:53

#	Program:	/corina/corina34_cracker 3.40 0067  02.08.2006

@<TRIPOS>MOLECULE
ASD01901177
  51   53    0    0    0
SMALL
NO_CHARGES


@<TRIPOS>ATOM
   1 C1            -0.2428     1.5574     1.8517 C.ar    
   2 C2            -0.2516     0.1961     2.0729 C.ar    
   3 C3             0.9404    -0.4959     2.1971 C.ar    
   4 C4             2.1489     0.1712     2.1005 C.ar    
   5 C5             2.1734     1.5324     1.8799 C.ar    
   6 C6             0.9738     2.2378     1.7530 C.ar    
   7 C7             0.9911     3.6511     1.5229 C.1     
   8 C8             1.0053     4.8098     1.3342 C.1     
   9 C9             1.0225     6.2231     1.1041 C.ar    
  10 C10            2.2405     6.9020     1.0057 C.ar    
  11 C11            2.2533     8.2640     0.7840 C.ar    
  12 C12            1.0560     8.9613     0.6584 C.ar    
  13 C13           -0.1580     8.2889     0.7559 C.ar    
  14 C14           -0.1784     6.9261     0.9717 C.ar    
  15 N15            1.0730    10.3456     0.4336 N.am    
  16 C16            1.0927    10.8110    -0.8264 C.2     
  17 N17            1.3470    12.1019    -1.0954 N.am    
  18 C18            1.7351    13.0300    -0.0316 C.3     
  19 C19            0.9852    12.6759     1.2546 C.3     
  20 C20            1.0636    11.1876     1.4831 C.2     
  21 O21            0.8756    10.0454    -1.7450 O.2     
  22 F22            3.4300     8.9210     0.6891 F       
  23 O23            1.1220    10.7500     2.6123 O.2     
  24 F24           -1.3182     8.9700     0.6333 F       
  25 C25            3.2419    12.9211     0.2103 C.3     
  26 C26            1.3877    14.4610    -0.4468 C.3     
  27 C27            3.6080    11.4641     0.5001 C.3     
  28 C28            3.9940    13.3981    -1.0338 C.3     
  29 C29            3.6307    13.7923     1.4064 C.3     
  30 H30           -1.1738     2.0954     1.7505 H       
  31 H31           -1.1910    -0.3311     2.1498 H       
  32 H32            0.9273    -1.5618     2.3706 H       
  33 H33            3.0752    -0.3754     2.1984 H       
  34 H34            3.1174     2.0518     1.8054 H       
  35 H35            3.1703     6.3614     1.1034 H       
  36 H36           -1.1211     6.4039     1.0425 H       
  37 H37            1.2729    12.4239    -2.0074 H       
  38 H38            1.4384    13.1996     2.0963 H       
  39 H39           -0.0596    12.9718     1.1603 H       
  40 H40            1.6797    15.1502     0.3456 H       
  41 H41            1.9217    14.7134    -1.3629 H       
  42 H42            0.3142    14.5390    -0.6188 H       
  43 H43            3.2199    10.8270    -0.2946 H       
  44 H44            4.6924    11.3647     0.5487 H       
  45 H45            3.1725    11.1627     1.4528 H       
  46 H46            3.7332    14.4361    -1.2404 H       
  47 H47            5.0675    13.3205    -0.8615 H       
  48 H48            3.7170    12.7774    -1.8860 H       
  49 H49            3.0949    13.4525     2.2928 H       
  50 H50            4.7042    13.7148     1.5788 H       
  51 H51            3.3699    14.8303     1.1999 H       
@<TRIPOS>BOND
   1    1    2 ar
   2    1    6 ar
   3    1   30 1
   4    2    3 ar
   5    2   31 1
   6    3    4 ar
   7    3   32 1
   8    4    5 ar
   9    4   33 1
  10    5    6 ar
  11    5   34 1
  12    6    7 1
  13    7    8 3
  14    8    9 1
  15    9   10 ar
  16    9   14 ar
  17   10   11 ar
  18   10   35 1
  19   11   12 ar
  20   11   22 1
  21   12   13 ar
  22   12   15 1
  23   13   14 ar
  24   13   24 1
  25   14   36 1
  26   15   16 am
  27   15   20 am
  28   16   17 am
  29   16   21 2
  30   17   18 1
  31   17   37 1
  32   18   19 1
  33   18   25 1
  34   18   26 1
  35   19   20 1
  36   19   38 1
  37   19   39 1
  38   20   23 2
  39   25   27 1
  40   25   28 1
  41   25   29 1
  42   26   40 1
  43   26   41 1
  44   26   42 1
  45   27   43 1
  46   27   44 1
  47   27   45 1
  48   28   46 1
  49   28   47 1
  50   28   48 1
  51   29   49 1
  52   29   50 1
  53   29   51 1

#	End of record

