#	Name: ASD01912574
#	Creating user name:	WinNT
#	Creation time:	15. 06. 2019 19:59

#	Modifying user name:	WinNT
#	Modification time:	15. 06. 2019 19:59

#	Program:	/corina/corina34_cracker 3.40 0067  02.08.2006

@<TRIPOS>MOLECULE
ASD01912574
  40   43    0    0    0
SMALL
NO_CHARGES


@<TRIPOS>ATOM
   1 C1            -0.0187     1.5272     0.0104 C.3     
   2 C2             0.0021    -0.0041     0.0020 C.3     
   3 C3             1.4179     2.0529    -0.0005 C.3     
   4 C4             2.1379     1.5713    -1.2613 C.3     
   5 C5             2.1667     0.0402    -1.2748 C.3     
   6 C6             0.7436    -0.4980    -1.2321 C.3     
   7 C7             0.7498    -2.0384    -1.2751 C.3     
   8 C8             0.5709    -2.3245    -2.7555 C.2     
   9 N9             0.1742    -1.2344    -3.3335 N.2     
  10 O10            0.0306    -0.1551    -2.4288 O.3     
  11 O11            1.4075     3.4854     0.0319 O.3     
  12 C12            2.1167     3.8918     1.2200 C.3     
  13 C13            2.9868     2.6531     1.5498 C.3     
  14 O14            2.1122     1.5669     1.1602 O.3     
  15 C15            0.8009    -3.5816    -3.4015 C.1     
  16 C16            0.9895    -4.6122    -3.9311 C.1     
  17 C17            1.2195    -5.8694    -4.5771 C.ar    
  18 N18            1.0235    -5.9838    -5.8876 N.ar    
  19 C19            1.6537    -6.9652    -3.8272 C.ar    
  20 C20            1.8718    -8.1735    -4.4677 C.ar    
  21 C21            1.6489    -8.2480    -5.8373 C.ar    
  22 C22            1.2241    -7.1219    -6.5188 C.ar    
  23 Cl23           2.4121    -9.5638    -3.5795 Cl      
  24 H24           -0.5451     1.8888    -0.8729 H       
  25 H25           -0.5281     1.8792     0.9075 H       
  26 H26            0.5074    -0.3651     0.8978 H       
  27 H27           -1.0206    -0.3808    -0.0141 H       
  28 H28            1.6088     1.9330    -2.1430 H       
  29 H29            3.1584     1.9544    -1.2663 H       
  30 H30            2.6583    -0.3056    -2.1842 H       
  31 H31            2.7172    -0.3201    -0.4058 H       
  32 H32            1.7008    -2.4322    -0.9167 H       
  33 H33           -0.0811    -2.4454    -0.6988 H       
  34 H34            2.7438     4.7598     1.0163 H       
  35 H35            1.4202     4.1005     2.0320 H       
  36 H36            3.9013     2.6495     0.9567 H       
  37 H37            3.2140     2.6083     2.6149 H       
  38 H38            1.8173    -6.8713    -2.7638 H       
  39 H39            1.8100    -9.1760    -6.3657 H       
  40 H40            1.0500    -7.1780    -7.5832 H       
@<TRIPOS>BOND
   1    1    2 1
   2    1    3 1
   3    1   24 1
   4    1   25 1
   5    2    6 1
   6    2   26 1
   7    2   27 1
   8    3    4 1
   9    3   11 1
  10    3   14 1
  11    4    5 1
  12    4   28 1
  13    4   29 1
  14    5    6 1
  15    5   30 1
  16    5   31 1
  17    6    7 1
  18    6   10 1
  19    7    8 1
  20    7   32 1
  21    7   33 1
  22    8    9 2
  23    8   15 1
  24    9   10 1
  25   11   12 1
  26   12   13 1
  27   12   34 1
  28   12   35 1
  29   13   14 1
  30   13   36 1
  31   13   37 1
  32   15   16 3
  33   16   17 1
  34   17   18 ar
  35   17   19 ar
  36   18   22 ar
  37   19   20 ar
  38   19   38 1
  39   20   21 ar
  40   20   23 1
  41   21   22 ar
  42   21   39 1
  43   22   40 1

#	End of record

