#	Name: ASD01410872
#	Creating user name:	WinNT
#	Creation time:	15. 06. 2019 19:18

#	Modifying user name:	WinNT
#	Modification time:	15. 06. 2019 19:18

#	Program:	/corina/corina34_cracker 3.40 0067  02.08.2006

@<TRIPOS>MOLECULE
ASD01410872
 114  121    0    0    0
SMALL
NO_CHARGES


@<TRIPOS>ATOM
   1 N1             2.2717     2.1793    -1.8292 N.3     
   2 C2             1.9074    -1.5562    -1.3739 C.3     
   3 C3             1.8839    -0.2181    -2.1459 C.3     
   4 N4             3.1902    -0.1940    -2.8304 N.am    
   5 C5             3.4475    -1.5678    -3.2827 C.3     
   6 C6             2.6491    -2.5015    -2.3501 C.3     
   7 O7             2.6326    -1.4220    -0.1499 O.3     
   8 C8             2.9802    -1.7379    -4.7053 C.2     
   9 O9             2.4778    -0.8043    -5.2943 O.2     
  10 N10            3.1205    -2.9275    -5.3230 N.am    
  11 C11            1.7937     0.9549    -1.1778 C.3     
  12 C12            3.7037     2.1135    -2.1412 C.3     
  13 C13            3.9900     0.8760    -2.9568 C.2     
  14 O14            4.9335     0.8490    -3.7183 O.2     
  15 C15            4.1083     3.3544    -2.9396 C.3     
  16 C16            3.9356     4.6001    -2.0683 C.3     
  17 C17            2.5561    -3.1298    -6.6597 C.3     
  18 C18            1.0524    -3.0781    -6.7450 C.2     
  19 N19            0.3162    -2.9900    -5.6195 N.am    
  20 O20            0.5048    -3.1157    -7.8265 O.2     
  21 S21           -1.3259    -2.7997    -5.7171 S.o2    
  22 C22           -1.9150    -4.3359    -6.4810 C.3     
  23 C23            3.3503    -2.5902    -7.8509 C.3     
  24 C24            3.2839    -4.0979    -7.5946 C.3     
  25 C25           -3.4037    -4.4301    -6.8212 C.3     
  26 C26           -2.3721    -4.2695    -7.9396 C.3     
  27 O27           -1.7506    -2.7213    -4.3633 O.2     
  28 O28           -1.4996    -1.7032    -6.6041 O.2     
  29 C29            2.5690    -2.0482    -9.0200 C.2     
  30 C30            2.7216    -0.8001    -9.3876 C.2     
  31 C31            2.3599    -2.3202     0.8289 C.ar    
  32 C32            3.0172    -2.2529     2.0797 C.ar    
  33 C33            1.4363    -3.3135     0.6346 C.ar    
  34 C34            1.1722    -4.2291     1.6623 C.ar    
  35 N35            1.7955    -4.1603     2.8265 N.ar    
  36 C36            2.7027    -3.2106     3.0753 C.ar    
  37 C37            0.1736    -5.2958     1.4400 C.2     
  38 S38           -0.7444    -5.5436    -0.0432 S.3     
  39 C39            3.3591    -3.1483     4.3169 C.ar    
  40 C40            4.2895    -2.1591     4.5454 C.ar    
  41 C41            4.5881    -1.2170     3.5569 C.ar    
  42 C42            3.9694    -1.2581     2.3451 C.ar    
  43 Cl43           2.9986    -4.3109     5.5547 Cl      
  44 O44            4.9241    -2.0979     5.7453 O.3     
  45 C45            5.8785    -1.0491     5.9216 C.3     
  46 N46           -0.1649    -6.2068     2.3071 N.2     
  47 C47           -1.0719    -7.0774     1.9352 C.2     
  48 C48           -1.5490    -6.9285     0.6926 C.2     
  49 C49           -1.5465    -8.1784     2.8482 C.3     
  50 C50           -2.8191    -7.7298     3.5695 C.3     
  51 C51           -1.8429    -9.4326     2.0235 C.3     
  52 C52            3.2221     3.4734    -4.1811 C.3     
  53 C53            4.4567     5.8256    -2.8217 C.3     
  54 C54            6.4844    -1.1414     7.3236 C.3     
  55 N55            7.2508    -2.3887     7.4447 N.3     
  56 C56            8.0394    -2.4041     8.6853 C.3     
  57 C57            8.1171    -2.5906     6.2742 C.3     
  58 C58            8.8506    -3.9272     6.4134 C.3     
  59 O59            9.5865    -3.9360     7.6396 O.3     
  60 C60            8.7737    -3.7426     8.8003 C.3     
  61 H61            1.7305     2.3840    -2.6558 H       
  62 H62            0.8942    -1.9103    -1.1839 H       
  63 H63            1.0666    -0.1995    -2.8668 H       
  64 H64            4.5121    -1.7905    -3.2106 H       
  65 H65            3.3252    -3.1574    -1.8018 H       
  66 H66            1.9335    -3.0893    -2.9251 H       
  67 H67            3.5951    -3.6497    -4.8825 H       
  68 H68            2.4072     0.7483    -0.3008 H       
  69 H69            0.7572     1.0902    -0.8689 H       
  70 H70            4.2756     2.0772    -1.2140 H       
  71 H71            5.1511     3.2661    -3.2446 H       
  72 H72            2.8794     4.7380    -1.8368 H       
  73 H73            4.4974     4.4768    -1.1425 H       
  74 H74            0.7483    -3.0380    -4.7524 H       
  75 H75           -1.4156    -5.2468    -6.1508 H       
  76 H76            4.2927    -2.0847    -7.6401 H       
  77 H77            4.1827    -4.5840    -7.2154 H       
  78 H78            2.6751    -4.6972    -8.2717 H       
  79 H79           -3.8836    -5.4030    -6.7151 H       
  80 H80           -4.0292    -3.5690    -6.5859 H       
  81 H81           -2.3189    -3.3027    -8.4402 H       
  82 H82           -2.1734    -5.1367    -8.5694 H       
  83 H83            1.8832    -2.6886    -9.5547 H       
  84 H84            3.4073    -0.1596    -8.8528 H       
  85 H85            2.1616    -0.4116   -10.2254 H       
  86 H86            0.9133    -3.3904    -0.3072 H       
  87 H87            5.3209    -0.4491     3.7559 H       
  88 H88            4.2095    -0.5241     1.5902 H       
  89 H89            6.6686    -1.1479     5.1772 H       
  90 H90            5.3849    -0.0847     5.8019 H       
  91 H91           -2.2965    -7.5502     0.2224 H       
  92 H92           -0.7720    -8.4008     3.5823 H       
  93 H93           -3.1623    -8.5261     4.2298 H       
  94 H94           -2.6079    -6.8363     4.1570 H       
  95 H95           -3.5935    -7.5074     2.8354 H       
  96 H96           -0.9363    -9.7522     1.5097 H       
  97 H97           -2.1861   -10.2289     2.6839 H       
  98 H98           -2.6173    -9.2102     1.2895 H       
  99 H99            3.3452     2.5859    -4.8018 H       
 100 H100           2.1794     3.5617    -3.8761 H       
 101 H101           3.5104     4.3574    -4.7499 H       
 102 H102           5.5128     5.6878    -3.0532 H       
 103 H103           3.8948     5.9490    -3.7475 H       
 104 H104           4.3336     6.7131    -2.2010 H       
 105 H105           7.1456    -0.2910     7.4903 H       
 106 H106           5.6861    -1.1319     8.0657 H       
 107 H107           8.7654    -1.5913     8.6653 H       
 108 H108           7.3752    -2.2787     9.5404 H       
 109 H109           7.5096    -2.6013     5.3693 H       
 110 H110           8.8443    -1.7807     6.2156 H       
 111 H111           8.1258    -4.7413     6.4181 H       
 112 H112           9.5367    -4.0547     5.5761 H       
 113 H113           9.4042    -3.7366     9.6894 H       
 114 H114           8.0467    -4.5514     8.8744 H       
@<TRIPOS>BOND
   1    1   11 1
   2    1   12 1
   3    1   61 1
   4    2    3 1
   5    2    7 1
   6    2    6 1
   7    2   62 1
   8    3    4 1
   9    3   11 1
  10    3   63 1
  11    4    5 1
  12    4   13 am
  13    5    6 1
  14    5    8 1
  15    5   64 1
  16    6   65 1
  17    6   66 1
  18    7   31 1
  19    8    9 2
  20    8   10 am
  21   10   17 1
  22   10   67 1
  23   11   68 1
  24   11   69 1
  25   12   13 1
  26   12   15 1
  27   12   70 1
  28   13   14 2
  29   15   16 1
  30   15   52 1
  31   15   71 1
  32   16   53 1
  33   16   72 1
  34   16   73 1
  35   17   18 1
  36   17   23 1
  37   17   24 1
  38   18   19 am
  39   18   20 2
  40   19   21 am
  41   19   74 1
  42   21   22 1
  43   21   27 2
  44   21   28 2
  45   22   25 1
  46   22   26 1
  47   22   75 1
  48   23   24 1
  49   23   29 1
  50   23   76 1
  51   24   77 1
  52   24   78 1
  53   25   26 1
  54   25   79 1
  55   25   80 1
  56   26   81 1
  57   26   82 1
  58   29   30 2
  59   29   83 1
  60   30   84 1
  61   30   85 1
  62   31   32 ar
  63   31   33 ar
  64   32   36 ar
  65   32   42 ar
  66   33   34 ar
  67   33   86 1
  68   34   35 ar
  69   34   37 1
  70   35   36 ar
  71   36   39 ar
  72   37   46 2
  73   37   38 1
  74   38   48 1
  75   39   40 ar
  76   39   43 1
  77   40   41 ar
  78   40   44 1
  79   41   42 ar
  80   41   87 1
  81   42   88 1
  82   44   45 1
  83   45   54 1
  84   45   89 1
  85   45   90 1
  86   46   47 1
  87   47   48 2
  88   47   49 1
  89   48   91 1
  90   49   50 1
  91   49   51 1
  92   49   92 1
  93   50   93 1
  94   50   94 1
  95   50   95 1
  96   51   96 1
  97   51   97 1
  98   51   98 1
  99   52   99 1
 100   52  100 1
 101   52  101 1
 102   53  102 1
 103   53  103 1
 104   53  104 1
 105   54   55 1
 106   54  105 1
 107   54  106 1
 108   55   56 1
 109   55   57 1
 110   56   60 1
 111   56  107 1
 112   56  108 1
 113   57   58 1
 114   57  109 1
 115   57  110 1
 116   58   59 1
 117   58  111 1
 118   58  112 1
 119   59   60 1
 120   60  113 1
 121   60  114 1

#	End of record

