#	Name: ASD01900897
#	Creating user name:	WinNT
#	Creation time:	15. 06. 2019 19:52

#	Modifying user name:	WinNT
#	Modification time:	15. 06. 2019 19:52

#	Program:	/corina/corina34_cracker 3.40 0067  02.08.2006

@<TRIPOS>MOLECULE
ASD01900897
  40   42    0    0    0
SMALL
NO_CHARGES


@<TRIPOS>ATOM
   1 C1            -0.0167     1.3776     0.0096 C.ar    
   2 C2             0.0021    -0.0041     0.0020 C.ar    
   3 C3            -1.1849    -0.7125     0.0095 C.ar    
   4 C4            -2.3940    -0.0382     0.0252 C.ar    
   5 C5            -2.4140     1.3460     0.0333 C.ar    
   6 C6            -1.2249     2.0542     0.0306 C.ar    
   7 F7            -1.2429     3.4051     0.0384 F       
   8 C8             1.2782     2.1485     0.0014 C.3     
   9 S9             1.7814     2.4670    -1.7121 S.o2    
  10 C10            3.2911     3.3641    -1.5674 C.2     
  11 O11            2.1537     1.2561    -2.3557 O.2     
  12 O12            0.8883     3.3818    -2.3322 O.2     
  13 C13            4.5151     2.8351    -1.5133 C.2     
  14 N14            5.4902     3.7179    -1.4051 N.2     
  15 C15            5.1484     4.9679    -1.3651 C.2     
  16 S16            3.4488     5.1164    -1.4766 S.3     
  17 N17            6.0343     6.0316    -1.2538 N.am    
  18 C18            7.3598     5.7997    -1.1787 C.2     
  19 O19            7.7798     4.6597    -1.2085 O.2     
  20 C20            8.3045     6.9341    -1.0600 C.ar    
  21 N21            7.8398     8.1770    -1.0280 N.ar    
  22 C22            8.6446     9.2120    -0.9229 C.ar    
  23 C23           10.0171     9.0409    -0.8413 C.ar    
  24 C24           10.5452     7.7594    -0.8710 C.ar    
  25 C25            9.6734     6.6875    -0.9770 C.ar    
  26 C26            4.7638     1.3499    -1.5711 C.3     
  27 F27           -3.5539    -0.7308     0.0321 F       
  28 H28            0.9448    -0.5309    -0.0102 H       
  29 H29           -1.1690    -1.7923     0.0029 H       
  30 H30           -3.3567     1.8728     0.0454 H       
  31 H31            1.1401     3.0964     0.5217 H       
  32 H32            2.0505     1.5669     0.5048 H       
  33 H33            5.6990     6.9415    -1.2300 H       
  34 H34            8.2299    10.2090    -0.9004 H       
  35 H35           10.6692     9.8975    -0.7556 H       
  36 H36           11.6116     7.6000    -0.8093 H       
  37 H37           10.0502     5.6756    -1.0030 H       
  38 H38            4.8911     1.0429    -2.6093 H       
  39 H39            5.6659     1.1103    -1.0082 H       
  40 H40            3.9142     0.8221    -1.1378 H       
@<TRIPOS>BOND
   1    1    2 ar
   2    1    8 1
   3    1    6 ar
   4    2    3 ar
   5    2   28 1
   6    3    4 ar
   7    3   29 1
   8    4    5 ar
   9    4   27 1
  10    5    6 ar
  11    5   30 1
  12    6    7 1
  13    8    9 1
  14    8   31 1
  15    8   32 1
  16    9   10 1
  17    9   11 2
  18    9   12 2
  19   10   13 2
  20   10   16 1
  21   13   14 1
  22   13   26 1
  23   14   15 2
  24   15   16 1
  25   15   17 1
  26   17   18 am
  27   17   33 1
  28   18   19 2
  29   18   20 1
  30   20   21 ar
  31   20   25 ar
  32   21   22 ar
  33   22   23 ar
  34   22   34 1
  35   23   24 ar
  36   23   35 1
  37   24   25 ar
  38   24   36 1
  39   25   37 1
  40   26   38 1
  41   26   39 1
  42   26   40 1

#	End of record

