#	Name: ASD01918178
#	Creating user name:	WinNT
#	Creation time:	15. 06. 2019 20:10

#	Modifying user name:	WinNT
#	Modification time:	15. 06. 2019 20:10

#	Program:	/corina/corina34_cracker 3.40 0067  02.08.2006

@<TRIPOS>MOLECULE
ASD01918178
  48   51    0    0    0
SMALL
NO_CHARGES


@<TRIPOS>ATOM
   1 C1             0.5088     2.0623    -0.5526 C.ar    
   2 C2             0.7753     0.7508    -0.9692 C.ar    
   3 C3             2.0631     0.3639    -1.1951 C.ar    
   4 C4             3.1181     1.2571    -1.0163 C.ar    
   5 C5             2.8926     2.5371    -0.6121 C.ar    
   6 C6             1.5777     2.9715    -0.3706 C.ar    
   7 N7             1.3284     4.2250     0.0260 N.ar    
   8 C8             0.1063     4.6452     0.2553 C.ar    
   9 C9            -0.9955     3.8147     0.0999 C.ar    
  10 C10           -0.8145     2.5044    -0.3131 C.ar    
  11 S11           -2.6167     4.4258     0.4208 S.o2    
  12 O12           -3.2511     3.4633     1.2516 O.2     
  13 O13           -2.4659     5.7904     0.7874 O.2     
  14 C14           -3.4904     4.4153    -1.1094 C.ar    
  15 C15           -3.3250     5.4541    -2.0065 C.ar    
  16 C16           -4.3365     3.3656    -1.4147 C.ar    
  17 C17           -5.0217     3.3567    -2.6150 C.ar    
  18 C18           -4.8607     4.3985    -3.5110 C.ar    
  19 C19           -4.0097     5.4462    -3.2071 C.ar    
  20 N20           -1.8952     1.6522    -0.4830 N.3     
  21 C21           -3.2790     0.3869    -2.0593 C.3     
  22 C22           -3.2463    -0.8198    -1.1173 C.3     
  23 C23           -3.0901    -0.3279     0.3243 C.3     
  24 C24           -1.8147     0.5104     0.4368 C.3     
  25 C25           -1.9980     1.2044    -1.8777 C.3     
  26 C26           -4.5511    -1.6076    -1.2501 C.3     
  27 Cl27           2.3928    -1.2605    -1.7111 Cl      
  28 Cl28          -5.7210     4.3879    -5.0188 Cl      
  29 H29           -0.0347     0.0505    -1.1101 H       
  30 H30            4.1301     0.9283    -1.2009 H       
  31 H31            3.7211     3.2167    -0.4775 H       
  32 H32           -0.0466     5.6656     0.5743 H       
  33 H33           -2.6610     6.2720    -1.7690 H       
  34 H34           -4.4618     2.5522    -0.7154 H       
  35 H35           -5.6824     2.5363    -2.8536 H       
  36 H36           -3.8807     6.2579    -3.9077 H       
  37 H37           -3.3471     0.0415    -3.0909 H       
  38 H38           -4.1434     1.0081    -1.8251 H       
  39 H39           -2.4042    -1.4616    -1.3764 H       
  40 H40           -3.9516     0.2821     0.5961 H       
  41 H41           -3.0233    -1.1839     0.9957 H       
  42 H42           -0.9523    -0.1041     0.1782 H       
  43 H43           -1.7080     0.8740     1.4588 H       
  44 H44           -2.0246     2.0722    -2.5368 H       
  45 H45           -1.1348     0.5867    -2.1254 H       
  46 H46           -4.6642    -1.9526    -2.2779 H       
  47 H47           -4.5270    -2.4664    -0.5792 H       
  48 H48           -5.3918    -0.9652    -0.9879 H       
@<TRIPOS>BOND
   1    1    2 ar
   2    1    6 ar
   3    1   10 ar
   4    2    3 ar
   5    2   29 1
   6    3    4 ar
   7    3   27 1
   8    4    5 ar
   9    4   30 1
  10    5    6 ar
  11    5   31 1
  12    6    7 ar
  13    7    8 ar
  14    8    9 ar
  15    8   32 1
  16    9   10 ar
  17    9   11 1
  18   10   20 1
  19   11   12 2
  20   11   13 2
  21   11   14 1
  22   14   16 ar
  23   14   15 ar
  24   15   19 ar
  25   15   33 1
  26   16   17 ar
  27   16   34 1
  28   17   18 ar
  29   17   35 1
  30   18   19 ar
  31   18   28 1
  32   19   36 1
  33   20   25 1
  34   20   24 1
  35   21   22 1
  36   21   25 1
  37   21   37 1
  38   21   38 1
  39   22   23 1
  40   22   26 1
  41   22   39 1
  42   23   24 1
  43   23   40 1
  44   23   41 1
  45   24   42 1
  46   24   43 1
  47   25   44 1
  48   25   45 1
  49   26   46 1
  50   26   47 1
  51   26   48 1

#	End of record

