#	Name: ASD03091326
#	Creating user name:	WinNT
#	Creation time:	15. 06. 2019 20:30

#	Modifying user name:	WinNT
#	Modification time:	15. 06. 2019 20:30

#	Program:	/corina/corina34_cracker 3.40 0067  02.08.2006

@<TRIPOS>MOLECULE
ASD03091326
  47   48    0    0    0
SMALL
NO_CHARGES


@<TRIPOS>ATOM
   1 C1            -0.0821     1.4483    -0.1209 C.ar    
   2 C2            -0.0685     0.0554    -0.1183 C.ar    
   3 C3             1.1528    -0.6064    -0.1088 C.ar    
   4 N4             2.2838     0.0703    -0.1024 N.ar    
   5 C5             2.3047     1.3888    -0.1043 C.ar    
   6 C6             1.1303     2.1181    -0.1140 C.ar    
   7 C7             6.5262    -1.0425    -3.5002 C.ar    
   8 N8             5.7608    -1.9322    -2.8991 N.ar    
   9 C9             5.3742    -3.0376    -3.5038 C.ar    
  10 C10            5.7654    -3.3044    -4.8098 C.ar    
  11 C11            6.5738    -2.3850    -5.4741 C.ar    
  12 C12            6.9555    -1.2368    -4.7999 C.ar    
  13 C13            5.3286    -1.6854    -1.5212 C.3     
  14 C14            4.0037    -0.9202    -1.5315 C.3     
  15 C15            3.5524    -0.6624    -0.0925 C.3     
  16 N16           -1.2653    -0.6652    -0.1245 N.pl3   
  17 C17           -2.5473     0.0438    -0.1340 C.3     
  18 C18           -1.2384    -2.1300    -0.1216 C.3     
  19 N19            5.3544    -4.4777    -5.4472 N.pl3   
  20 C20            4.6130    -5.4964    -4.6997 C.3     
  21 C21            5.6648    -4.6893    -6.8632 C.3     
  22 H22           -1.0149     1.9925    -0.1327 H       
  23 H23            1.1757    -1.6862    -0.1063 H       
  24 H24            3.2527     1.9062    -0.0982 H       
  25 H25            1.1578     3.1977    -0.1158 H       
  26 H26            6.8179    -0.1471    -2.9715 H       
  27 H27            4.7474    -3.7432    -2.9787 H       
  28 H28            6.8950    -2.5630    -6.4898 H       
  29 H29            7.5817    -0.5019    -5.2840 H       
  30 H30            5.1946    -2.6368    -1.0065 H       
  31 H31            6.0849    -1.0955    -1.0034 H       
  32 H32            4.1377     0.0313    -2.0463 H       
  33 H33            3.2475    -1.5101    -2.0494 H       
  34 H34            4.3087    -0.0725     0.4253 H       
  35 H35            3.4184    -1.6139     0.4222 H       
  36 H36           -2.8587     0.2177    -1.1640 H       
  37 H37           -3.2992    -0.5582     0.3762 H       
  38 H38           -2.4378     0.9994     0.3788 H       
  39 H39           -1.2383    -2.4914     0.9067 H       
  40 H40           -2.1183    -2.5106    -0.6404 H       
  41 H41           -0.3387    -2.4779    -0.6291 H       
  42 H42            4.5599    -5.2096    -3.6494 H       
  43 H43            3.6046    -5.5820    -5.1044 H       
  44 H44            5.1230    -6.4556    -4.7890 H       
  45 H45            6.6268    -5.1939    -6.9528 H       
  46 H46            4.8881    -5.3046    -7.3175 H       
  47 H47            5.7105    -3.7269    -7.3730 H       
@<TRIPOS>BOND
   1    1    2 ar
   2    1    6 ar
   3    1   22 1
   4    2    3 ar
   5    2   16 1
   6    3    4 ar
   7    3   23 1
   8    4    5 ar
   9    4   15 1
  10    5    6 ar
  11    5   24 1
  12    6   25 1
  13    7    8 ar
  14    7   12 ar
  15    7   26 1
  16    8    9 ar
  17    8   13 1
  18    9   10 ar
  19    9   27 1
  20   10   11 ar
  21   10   19 1
  22   11   12 ar
  23   11   28 1
  24   12   29 1
  25   13   14 1
  26   13   30 1
  27   13   31 1
  28   14   15 1
  29   14   32 1
  30   14   33 1
  31   15   34 1
  32   15   35 1
  33   16   17 1
  34   16   18 1
  35   17   36 1
  36   17   37 1
  37   17   38 1
  38   18   39 1
  39   18   40 1
  40   18   41 1
  41   19   20 1
  42   19   21 1
  43   20   42 1
  44   20   43 1
  45   20   44 1
  46   21   45 1
  47   21   46 1
  48   21   47 1

#	End of record

