#	Name: ASD01100017
#	Creating user name:	WinNT
#	Creation time:	15. 06. 2019 18:58

#	Modifying user name:	WinNT
#	Modification time:	15. 06. 2019 18:58

#	Program:	/corina/corina34_cracker 3.40 0067  02.08.2006

@<TRIPOS>MOLECULE
ASD01100017
  38   39    0    0    0
SMALL
NO_CHARGES


@<TRIPOS>ATOM
   1 C1             1.5252    -0.3708    -1.9573 C.ar    
   2 C2             2.0481    -1.6383    -1.7724 C.ar    
   3 C3             3.2292    -1.8032    -1.0709 C.ar    
   4 C4             3.8859    -0.7018    -0.5553 C.ar    
   5 C5             3.3629     0.5644    -0.7404 C.ar    
   6 C6             2.1829     0.7298    -1.4412 C.ar    
   7 C7             4.0793     1.7649    -0.1775 C.3     
   8 C8             3.1616     2.4903     0.8086 C.3     
   9 C9             2.8698     1.5765     2.0006 C.3     
  10 C10            3.8481     3.7662     1.3002 C.3     
  11 Cl11           1.2224    -3.0213    -2.4199 Cl      
  12 C12            4.4504     2.7000    -1.2994 C.2     
  13 N13            5.2189     3.7790    -1.0509 N.am    
  14 O14            4.0577     2.4817    -2.4260 O.2     
  15 C15            5.4797     4.7018    -2.0699 C.ar    
  16 C16            6.6953     5.3723    -2.1071 C.ar    
  17 C17            6.9499     6.2821    -3.1145 C.ar    
  18 C18            5.9957     6.5262    -4.0852 C.ar    
  19 C19            4.7842     5.8602    -4.0509 C.ar    
  20 C20            4.5258     4.9449    -3.0495 C.ar    
  21 H21            0.6057    -0.2411    -2.5087 H       
  22 H22            3.6376    -2.7924    -0.9260 H       
  23 H23            4.8077    -0.8305    -0.0074 H       
  24 H24            1.7748     1.7193    -1.5855 H       
  25 H25            4.9827     1.4399     0.3386 H       
  26 H26            2.2265     2.7491     0.3118 H       
  27 H27            3.8048     1.3177     2.4974 H       
  28 H28            2.2160     2.0933     2.7032 H       
  29 H29            2.3807     0.6675     1.6504 H       
  30 H30            4.0890     4.4008     0.4473 H       
  31 H31            3.1797     4.3018     1.9743 H       
  32 H32            4.7647     3.5050     1.8291 H       
  33 H33            5.5911     3.9159    -0.1657 H       
  34 H34            7.4407     5.1826    -1.3489 H       
  35 H35            7.8950     6.8039    -3.1440 H       
  36 H36            6.1969     7.2387    -4.8715 H       
  37 H37            4.0411     6.0530    -4.8105 H       
  38 H38            3.5794     4.4251    -3.0233 H       
@<TRIPOS>BOND
   1    1    2 ar
   2    1    6 ar
   3    1   21 1
   4    2    3 ar
   5    2   11 1
   6    3    4 ar
   7    3   22 1
   8    4    5 ar
   9    4   23 1
  10    5    6 ar
  11    5    7 1
  12    6   24 1
  13    7    8 1
  14    7   12 1
  15    7   25 1
  16    8    9 1
  17    8   10 1
  18    8   26 1
  19    9   27 1
  20    9   28 1
  21    9   29 1
  22   10   30 1
  23   10   31 1
  24   10   32 1
  25   12   13 am
  26   12   14 2
  27   13   15 1
  28   13   33 1
  29   15   16 ar
  30   15   20 ar
  31   16   17 ar
  32   16   34 1
  33   17   18 ar
  34   17   35 1
  35   18   19 ar
  36   18   36 1
  37   19   20 ar
  38   19   37 1
  39   20   38 1

#	End of record

