#	Name: ASD01841011
#	Creating user name:	WinNT
#	Creation time:	15. 06. 2019 19:38

#	Modifying user name:	WinNT
#	Modification time:	15. 06. 2019 19:38

#	Program:	/corina/corina34_cracker 3.40 0067  02.08.2006

@<TRIPOS>MOLECULE
ASD01841011
  92   95    0    0    0
SMALL
NO_CHARGES


@<TRIPOS>ATOM
   1 C1            -0.0178     1.4648     0.0101 C.3     
   2 N2             0.0021    -0.0041     0.0020 N.4     
   3 C3             0.7126    -0.4907     1.1921 C.3     
   4 C4             2.1480     0.0389     1.1813 C.3     
   5 N5             2.8584    -0.4477     2.3714 N.4     
   6 C6             2.8784    -1.9166     2.3633 C.3     
   7 C7            -1.3761    -0.5125     0.0124 C.3     
   8 C8            -2.1161    -0.0057    -1.2271 C.3     
   9 C9            -3.5515    -0.5353    -1.2162 C.3     
  10 C10           -4.2915    -0.0285    -2.4557 C.3     
  11 C11           -5.7373    -0.4472    -2.3838 C.ar    
  12 C12           -4.2061     1.4751    -2.5120 C.ar    
  13 O13           -3.6925    -0.5837    -3.6283 O.3     
  14 C14           -6.4478    -0.6812    -3.5463 C.ar    
  15 C15           -7.7740    -1.0653    -3.4803 C.ar    
  16 C16           -8.3898    -1.2157    -2.2519 C.ar    
  17 C17           -7.6791    -0.9825    -1.0894 C.ar    
  18 C18           -6.3516    -0.6027    -1.1552 C.ar    
  19 C19           -4.2143     2.1226    -3.7332 C.ar    
  20 C20           -4.1359     3.5018    -3.7848 C.ar    
  21 C21           -4.0499     4.2334    -2.6151 C.ar    
  22 C22           -4.0426     3.5859    -1.3938 C.ar    
  23 C23           -4.1254     2.2070    -1.3421 C.ar    
  24 C24            4.2366     0.0607     2.3609 C.3     
  25 C25            4.9766    -0.4461     3.6005 C.3     
  26 C26            6.4120     0.0835     3.5896 C.3     
  27 C27            7.1520    -0.4234     4.8291 C.3     
  28 O28            6.4831     0.0375     6.0048 O.3     
  29 C29            7.1724    -1.9302     4.8208 C.ar    
  30 C30            8.5658     0.0983     4.8184 C.ar    
  31 C31            9.2257     0.3311     6.0106 C.ar    
  32 C32           10.5225     0.8096     6.0008 C.ar    
  33 C33           11.1596     1.0549     4.7988 C.ar    
  34 C34           10.5001     0.8212     3.6066 C.ar    
  35 C35            9.2048     0.3386     3.6164 C.ar    
  36 C36            7.1932    -2.6277     6.0141 C.ar    
  37 C37            7.2120    -4.0099     6.0065 C.ar    
  38 C38            7.2095    -4.6946     4.8056 C.ar    
  39 C39            7.1878    -3.9971     3.6124 C.ar    
  40 C40            7.1646    -2.6150     3.6200 C.ar    
  41 C41            2.1709     0.0260     3.5800 C.3     
  42 C42            0.6897    -0.4778    -1.2066 C.3     
  43 H43            1.0047     1.8421     0.0024 H       
  44 H44           -0.5450     1.8259    -0.8730 H       
  45 H45           -0.5280     1.8163     0.9069 H       
  46 H46            0.2024    -0.1392     2.0889 H       
  47 H47            0.7273    -1.5806     1.1861 H       
  48 H48            2.6581    -0.3126     0.2845 H       
  49 H49            2.1332     1.1288     1.1872 H       
  50 H50            3.3886    -2.2681     1.4665 H       
  51 H51            3.4056    -2.2777     3.2463 H       
  52 H52            1.8558    -2.2939     2.3710 H       
  53 H53           -1.3613    -1.6024     0.0065 H       
  54 H54           -1.8863    -0.1610     0.9092 H       
  55 H55           -2.1309     1.0842    -1.2211 H       
  56 H56           -1.6059    -0.3572    -2.1239 H       
  57 H57           -3.5367    -1.6252    -1.2222 H       
  58 H58           -4.0616    -0.1838    -0.3194 H       
  59 H59           -3.7116    -1.5500    -3.6598 H       
  60 H60           -5.9667    -0.5637    -4.5061 H       
  61 H61           -8.3293    -1.2475    -4.3886 H       
  62 H62           -9.4262    -1.5151    -2.2003 H       
  63 H63           -8.1602    -1.0997    -0.1296 H       
  64 H64           -5.7963    -0.4205    -0.2470 H       
  65 H65           -4.2815     1.5510    -4.6471 H       
  66 H66           -4.1416     4.0077    -4.7390 H       
  67 H67           -3.9880     5.3109    -2.6554 H       
  68 H68           -3.9751     4.1575    -0.4799 H       
  69 H69           -4.1197     1.7011    -0.3879 H       
  70 H70            4.7468    -0.2908     1.4641 H       
  71 H71            4.2218     1.1506     2.3669 H       
  72 H72            4.4664    -0.0946     4.4973 H       
  73 H73            4.9914    -1.5360     3.5945 H       
  74 H74            6.9222    -0.2681     2.6928 H       
  75 H75            6.3972     1.1734     3.5956 H       
  76 H76            6.4325     1.0005     6.0766 H       
  77 H77            8.7279     0.1394     6.9497 H       
  78 H78           11.0378     0.9921     6.9322 H       
  79 H79           12.1726     1.4294     4.7911 H       
  80 H80           10.9978     1.0131     2.6675 H       
  81 H81            8.6895     0.1560     2.6850 H       
  82 H82            7.1952    -2.0928     6.9523 H       
  83 H83            7.2290    -4.5549     6.9388 H       
  84 H84            7.2249    -5.7745     4.7997 H       
  85 H85            7.1862    -4.5320     2.6741 H       
  86 H86            7.1477    -2.0700     2.6877 H       
  87 H87            1.1483    -0.3513     3.5877 H       
  88 H88            2.6980    -0.3351     4.4630 H       
  89 H89            2.1561     1.1159     3.5860 H       
  90 H90            1.7123    -0.1005    -1.2143 H       
  91 H91            0.7044    -1.5677    -1.2126 H       
  92 H92            0.1625    -0.1167    -2.0897 H       
@<TRIPOS>BOND
   1    1    2 1
   2    1   43 1
   3    1   44 1
   4    1   45 1
   5    2    3 1
   6    2    7 1
   7    2   42 1
   8    3    4 1
   9    3   46 1
  10    3   47 1
  11    4    5 1
  12    4   48 1
  13    4   49 1
  14    5    6 1
  15    5   24 1
  16    5   41 1
  17    6   50 1
  18    6   51 1
  19    6   52 1
  20    7    8 1
  21    7   53 1
  22    7   54 1
  23    8    9 1
  24    8   55 1
  25    8   56 1
  26    9   10 1
  27    9   57 1
  28    9   58 1
  29   10   11 1
  30   10   12 1
  31   10   13 1
  32   11   14 ar
  33   11   18 ar
  34   12   19 ar
  35   12   23 ar
  36   13   59 1
  37   14   15 ar
  38   14   60 1
  39   15   16 ar
  40   15   61 1
  41   16   17 ar
  42   16   62 1
  43   17   18 ar
  44   17   63 1
  45   18   64 1
  46   19   20 ar
  47   19   65 1
  48   20   21 ar
  49   20   66 1
  50   21   22 ar
  51   21   67 1
  52   22   23 ar
  53   22   68 1
  54   23   69 1
  55   24   25 1
  56   24   70 1
  57   24   71 1
  58   25   26 1
  59   25   72 1
  60   25   73 1
  61   26   27 1
  62   26   74 1
  63   26   75 1
  64   27   28 1
  65   27   29 1
  66   27   30 1
  67   28   76 1
  68   29   36 ar
  69   29   40 ar
  70   30   31 ar
  71   30   35 ar
  72   31   32 ar
  73   31   77 1
  74   32   33 ar
  75   32   78 1
  76   33   34 ar
  77   33   79 1
  78   34   35 ar
  79   34   80 1
  80   35   81 1
  81   36   37 ar
  82   36   82 1
  83   37   38 ar
  84   37   83 1
  85   38   39 ar
  86   38   84 1
  87   39   40 ar
  88   39   85 1
  89   40   86 1
  90   41   87 1
  91   41   88 1
  92   41   89 1
  93   42   90 1
  94   42   91 1
  95   42   92 1

#	End of record

