#	Name: ASD08178115
#	Creating user name:	WinNT
#	Creation time:	15. 06. 2019 21:18

#	Modifying user name:	WinNT
#	Modification time:	15. 06. 2019 21:18

#	Program:	/corina/corina34_cracker 3.40 0067  02.08.2006

@<TRIPOS>MOLECULE
ASD08178115
  70   73    0    0    0
SMALL
NO_CHARGES


@<TRIPOS>ATOM
   1 C1            -0.0184     1.5028     0.0103 C.2     
   2 C2             0.0021    -0.0041     0.0020 C.3     
   3 C3             0.0221    -0.5218     1.4416 C.3     
   4 C4             0.0429    -2.0516     1.4332 C.3     
   5 C5             0.0630    -2.5693     2.8728 C.3     
   6 C6             0.0834    -4.0761     2.8645 C.2     
   7 N7             1.1396    -4.8258     2.8513 N.2     
   8 N8             0.9467    -6.0734     2.8463 N.2     
   9 C9            -0.2824    -6.4936     2.8547 C.2     
  10 S10           -1.3267    -5.1359     2.8788 S.3     
  11 N11           -0.6838    -7.8252     2.8506 N.am    
  12 N12            1.0171     2.2809     0.0046 N.2     
  13 C13            0.2391    -8.8073     2.8374 C.2     
  14 O14            1.4197    -8.5298     2.8290 O.2     
  15 C15           -0.1960   -10.2501     2.8329 C.3     
  16 C16            1.0193   -11.1412     2.8177 C.ar    
  17 N17            0.7904     3.5228     0.0134 N.2     
  18 C18           -0.4495     3.9094     0.0274 C.2     
  19 S19           -1.4568     2.5237     0.0218 S.3     
  20 C20            2.6805   -12.3615     1.5998 C.ar    
  21 C21            1.5867   -11.5565     4.0079 C.ar    
  22 C22            2.7014   -12.3739     3.9939 C.ar    
  23 C23            3.2485   -12.7762     2.7899 C.ar    
  24 C24            1.5632   -11.5477     1.6137 C.ar    
  25 N25           -0.8870     5.2295     0.0390 N.am    
  26 C26            0.0089     6.2364     0.0358 C.2     
  27 O27            1.1967     5.9912     0.0228 O.2     
  28 C28           -0.4651     7.6668     0.0485 C.3     
  29 C29            0.7256     8.5906     0.0419 C.ar    
  30 C30            1.2598     9.0210    -1.1582 C.ar    
  31 C31            2.3520     9.8684    -1.1642 C.ar    
  32 C32            2.9096    10.2857     0.0299 C.ar    
  33 C33            2.3748     9.8561     1.2300 C.ar    
  34 C34            1.2799     9.0122     1.2360 C.ar    
  35 C35            2.9830    10.3106     2.5317 C.3     
  36 C36            2.3157    11.5853     2.9800 C.2     
  37 O37            1.4364    12.0744     2.3110 O.2     
  38 O38            2.6981    12.1772     4.1224 O.3     
  39 C39            3.3206   -12.8259     5.2914 C.3     
  40 C40            2.6869   -14.1224     5.7255 C.2     
  41 O41            3.0841   -14.7161     6.8620 O.3     
  42 O42            1.8213   -14.6275     5.0507 O.2     
  43 H43           -0.8875    -0.3767    -0.5057 H       
  44 H44            0.8922    -0.3525    -0.5218 H       
  45 H45            0.9118    -0.1491     1.9494 H       
  46 H46           -0.8680    -0.1733     1.9655 H       
  47 H47           -0.8467    -2.4242     0.9255 H       
  48 H48            0.9330    -2.4000     0.9094 H       
  49 H49            0.9526    -2.1967     3.3806 H       
  50 H50           -0.8271    -2.2209     3.3967 H       
  51 H51           -1.6281    -8.0470     2.8573 H       
  52 H52           -0.7854   -10.4546     3.7267 H       
  53 H53           -0.8003   -10.4446     1.9469 H       
  54 H54            3.1055   -12.6792     0.6591 H       
  55 H55            1.1592   -11.2422     4.9486 H       
  56 H56            4.1194   -13.4147     2.7790 H       
  57 H57            1.1195   -11.2238     0.6839 H       
  58 H58           -1.8369     5.4256     0.0495 H       
  59 H59           -1.0758     7.8550    -0.8345 H       
  60 H60           -1.0583     7.8451     0.9454 H       
  61 H61            0.8242     8.6950    -2.0911 H       
  62 H62            2.7698    10.2041    -2.1018 H       
  63 H63            3.7633    10.9472     0.0252 H       
  64 H64            0.8621     8.6765     2.1736 H       
  65 H65            2.8393     9.5396     3.2887 H       
  66 H66            4.0493    10.4884     2.3920 H       
  67 H67            2.2409    12.9930     4.3686 H       
  68 H68            4.3913   -12.9740     5.1508 H       
  69 H69            3.1561   -12.0670     6.0563 H       
  70 H70            2.6484   -15.5462     7.0992 H       
@<TRIPOS>BOND
   1    1    2 1
   2    1   12 2
   3    1   19 1
   4    2    3 1
   5    2   43 1
   6    2   44 1
   7    3    4 1
   8    3   45 1
   9    3   46 1
  10    4    5 1
  11    4   47 1
  12    4   48 1
  13    5    6 1
  14    5   49 1
  15    5   50 1
  16    6    7 2
  17    6   10 1
  18    7    8 1
  19    8    9 2
  20    9   10 1
  21    9   11 1
  22   11   13 am
  23   11   51 1
  24   12   17 1
  25   13   14 2
  26   13   15 1
  27   15   16 1
  28   15   52 1
  29   15   53 1
  30   16   21 ar
  31   16   24 ar
  32   17   18 2
  33   18   19 1
  34   18   25 1
  35   20   24 ar
  36   20   23 ar
  37   20   54 1
  38   21   22 ar
  39   21   55 1
  40   22   23 ar
  41   22   39 1
  42   23   56 1
  43   24   57 1
  44   25   26 am
  45   25   58 1
  46   26   27 2
  47   26   28 1
  48   28   29 1
  49   28   59 1
  50   28   60 1
  51   29   30 ar
  52   29   34 ar
  53   30   31 ar
  54   30   61 1
  55   31   32 ar
  56   31   62 1
  57   32   33 ar
  58   32   63 1
  59   33   34 ar
  60   33   35 1
  61   34   64 1
  62   35   36 1
  63   35   65 1
  64   35   66 1
  65   36   37 2
  66   36   38 1
  67   38   67 1
  68   39   40 1
  69   39   68 1
  70   39   69 1
  71   40   41 1
  72   40   42 2
  73   41   70 1

#	End of record

