#	Name: ASD01911913
#	Creating user name:	WinNT
#	Creation time:	15. 06. 2019 19:58

#	Modifying user name:	WinNT
#	Modification time:	15. 06. 2019 19:58

#	Program:	/corina/corina34_cracker 3.40 0067  02.08.2006

@<TRIPOS>MOLECULE
ASD01911913
  35   37    0    0    0
SMALL
NO_CHARGES


@<TRIPOS>ATOM
   1 C1            -1.0488    -0.4839    -2.0513 C.ar    
   2 C2            -1.0617     0.0599    -0.7709 C.ar    
   3 C3            -1.0260     1.4447    -0.6426 C.ar    
   4 N4            -0.9813     2.1897    -1.7347 N.ar    
   5 C5            -0.9704     1.6365    -2.9309 C.ar    
   6 N6            -1.0033     0.3292    -3.0937 N.ar    
   7 O7            -1.1085    -0.7409     0.3262 O.3     
   8 C8            -1.1452    -2.0854     0.1334 C.ar    
   9 C9             0.0138    -2.7701    -0.2047 C.ar    
  10 C10           -0.0223    -4.1395    -0.4013 C.ar    
  11 C11           -1.2140    -4.8290    -0.2617 C.ar    
  12 C12           -2.3757    -4.1472     0.0761 C.ar    
  13 C13           -2.3390    -2.7745     0.2800 C.ar    
  14 N14           -3.5802    -4.8437     0.2169 N.am    
  15 C15           -3.5760    -6.1115     0.6742 C.2     
  16 C16           -4.8357    -6.8834     0.7239 C.ar    
  17 O17           -2.5364    -6.6202     1.0459 O.2     
  18 C18           -4.8346    -8.1964     1.1970 C.ar    
  19 F19            1.1071    -4.8038    -0.7304 F       
  20 C20           -6.0132    -8.9126     1.2413 C.ar    
  21 C21           -7.1953    -8.3328     0.8182 C.ar    
  22 C22           -7.2046    -7.0296     0.3466 C.ar    
  23 C23           -6.0320    -6.3001     0.3032 C.ar    
  24 F24           -8.3629    -6.4698    -0.0660 F       
  25 H25           -1.0710    -1.5545    -2.1921 H       
  26 H26           -1.0350     1.9048     0.3345 H       
  27 H27           -0.9336     2.2729    -3.8027 H       
  28 H28            0.9447    -2.2336    -0.3148 H       
  29 H29           -1.2406    -5.8976    -0.4158 H       
  30 H30           -3.2415    -2.2426     0.5427 H       
  31 H31           -4.4186    -4.4144    -0.0147 H       
  32 H32           -3.9126    -8.6514     1.5277 H       
  33 H33           -6.0124    -9.9288     1.6071 H       
  34 H34           -8.1149    -8.8980     0.8550 H       
  35 H35           -6.0393    -5.2846    -0.0643 H       
@<TRIPOS>BOND
   1    1    2 ar
   2    1    6 ar
   3    1   25 1
   4    2    3 ar
   5    2    7 1
   6    3    4 ar
   7    3   26 1
   8    4    5 ar
   9    5    6 ar
  10    5   27 1
  11    7    8 1
  12    8    9 ar
  13    8   13 ar
  14    9   10 ar
  15    9   28 1
  16   10   11 ar
  17   10   19 1
  18   11   12 ar
  19   11   29 1
  20   12   13 ar
  21   12   14 1
  22   13   30 1
  23   14   15 am
  24   14   31 1
  25   15   16 1
  26   15   17 2
  27   16   18 ar
  28   16   23 ar
  29   18   20 ar
  30   18   32 1
  31   20   21 ar
  32   20   33 1
  33   21   22 ar
  34   21   34 1
  35   22   23 ar
  36   22   24 1
  37   23   35 1

#	End of record

