#	Name: ASD01890491
#	Creating user name:	WinNT
#	Creation time:	15. 06. 2019 19:51

#	Modifying user name:	WinNT
#	Modification time:	15. 06. 2019 19:51

#	Program:	/corina/corina34_cracker 3.40 0067  02.08.2006

@<TRIPOS>MOLECULE
ASD01890491
  52   55    0    0    0
SMALL
NO_CHARGES


@<TRIPOS>ATOM
   1 C1            -0.0276     1.4537    -0.0206 C.2     
   2 C2            -0.0035    -0.0079    -0.0408 C.2     
   3 C3             1.1747    -0.6626    -0.1146 C.2     
   4 C4             2.4500     0.1053    -0.3495 C.3     
   5 C5             3.0815     0.4689     0.9958 C.3     
   6 O6             1.0142     2.0783     0.0414 O.2     
   7 O7            -1.2052     2.1098    -0.0762 O.3     
   8 N8             5.2882     0.7103     0.0035 N.ar    
   9 C9             4.3567     1.2368     0.7609 C.ar    
  10 C10            4.5142     2.4877     1.3541 C.ar    
  11 C11            5.6632     3.1980     1.1524 C.ar    
  12 C12            6.6614     2.6293     0.3388 C.ar    
  13 C13            7.8684     3.3001     0.0858 C.ar    
  14 C14            8.8092     2.7165    -0.7071 C.ar    
  15 C15            8.5899     1.4618    -1.2714 C.ar    
  16 C16            7.4314     0.7835    -1.0471 C.ar    
  17 C17            6.4363     1.3527    -0.2338 C.ar    
  18 C18            0.5962    -2.9315    -0.9126 C.ar    
  19 C19            1.2138    -2.1253     0.0342 C.ar    
  20 C20            1.8780    -2.6989     1.1360 C.ar    
  21 C21            1.9279    -4.0454     1.2935 C.ar    
  22 C22            1.3118    -4.8889     0.3504 C.ar    
  23 C23            1.3521    -6.2856     0.4934 C.ar    
  24 C24            0.7475    -7.0772    -0.4349 C.ar    
  25 C25            0.0862    -6.5237    -1.5297 C.ar    
  26 C26            0.0262    -5.1751    -1.7026 C.ar    
  27 C27            0.6389    -4.3249    -0.7639 C.ar    
  28 C28           -1.1540     3.5376    -0.0524 C.3     
  29 C29           -2.5751     4.1001    -0.1229 C.3     
  30 H30           -0.9284    -0.5638     0.0034 H       
  31 H31            3.1441    -0.5096    -0.9224 H       
  32 H32            2.2283     1.0166    -0.9050 H       
  33 H33            2.3874     1.0839     1.5686 H       
  34 H34            3.3032    -0.4423     1.5512 H       
  35 H35            3.7283     2.8954     1.9726 H       
  36 H36            5.8018     4.1691     1.6042 H       
  37 H37            8.0496     4.2735     0.5171 H       
  38 H38            9.7375     3.2332    -0.9012 H       
  39 H39            9.3513     1.0203    -1.8973 H       
  40 H40            7.2772    -0.1882    -1.4925 H       
  41 H41            0.0838    -2.4890    -1.7540 H       
  42 H42            2.3538    -2.0588     1.8643 H       
  43 H43            2.4412    -4.4705     2.1433 H       
  44 H44            1.8609    -6.7298     1.3361 H       
  45 H45            0.7812    -8.1507    -0.3212 H       
  46 H46           -0.3852    -7.1743    -2.2514 H       
  47 H47           -0.4896    -4.7597    -2.5557 H       
  48 H48           -0.6776     3.8688     0.8704 H       
  49 H49           -0.5790     3.8949    -0.9067 H       
  50 H50           -3.1501     3.7428     0.7313 H       
  51 H51           -2.5361     5.1893    -0.1047 H       
  52 H52           -3.0515     3.7690    -1.0457 H       
@<TRIPOS>BOND
   1    1    2 1
   2    1    6 2
   3    1    7 1
   4    2    3 2
   5    2   30 1
   6    3    4 1
   7    3   19 1
   8    4    5 1
   9    4   31 1
  10    4   32 1
  11    5    9 1
  12    5   33 1
  13    5   34 1
  14    7   28 1
  15    8    9 ar
  16    8   17 ar
  17    9   10 ar
  18   10   11 ar
  19   10   35 1
  20   11   12 ar
  21   11   36 1
  22   12   13 ar
  23   12   17 ar
  24   13   14 ar
  25   13   37 1
  26   14   15 ar
  27   14   38 1
  28   15   16 ar
  29   15   39 1
  30   16   17 ar
  31   16   40 1
  32   18   19 ar
  33   18   27 ar
  34   18   41 1
  35   19   20 ar
  36   20   21 ar
  37   20   42 1
  38   21   22 ar
  39   21   43 1
  40   22   23 ar
  41   22   27 ar
  42   23   24 ar
  43   23   44 1
  44   24   25 ar
  45   24   45 1
  46   25   26 ar
  47   25   46 1
  48   26   27 ar
  49   26   47 1
  50   28   29 1
  51   28   48 1
  52   28   49 1
  53   29   50 1
  54   29   51 1
  55   29   52 1

#	End of record

