#	Name: ASD03730111
#	Creating user name:	WinNT
#	Creation time:	15. 06. 2019 20:44

#	Modifying user name:	WinNT
#	Modification time:	15. 06. 2019 20:44

#	Program:	/corina/corina34_cracker 3.40 0067  02.08.2006

@<TRIPOS>MOLECULE
ASD03730111
  49   54    0    0    0
SMALL
NO_CHARGES


@<TRIPOS>ATOM
   1 C1            -0.0466     1.4850     0.2242 C.2     
   2 C2            -0.0457    -0.0219     0.2061 C.3     
   3 O3             0.9868     2.0897     0.4180 O.2     
   4 N4            -1.1946     2.1607     0.0195 N.am    
   5 O5             5.7355     2.7525     3.4573 O.3     
   6 C6             7.0874     2.6733     3.9465 C.3     
   7 O7             7.1827     1.3370     4.4741 O.3     
   8 C8             6.2763     0.5993     3.7677 C.ar    
   9 C9             5.3861     1.4703     3.1436 C.ar    
  10 C10            6.1371    -0.7671     3.6033 C.ar    
  11 C11            5.1100    -1.2818     2.8179 C.ar    
  12 C12            4.2220    -0.4021     2.2062 C.ar    
  13 C13            4.3618     0.9610     2.3632 C.ar    
  14 O14            4.8091    -2.5773     2.5154 O.3     
  15 C15            3.2242    -1.2485     1.4618 C.3     
  16 C16            3.4507    -2.6514     2.0415 C.3     
  17 N17            1.3138    -0.5124     0.4455 N.am    
  18 C18            1.8133    -0.7781     1.6690 C.2     
  19 C19            3.4410    -1.2145    -0.0220 C.ar    
  20 C20            4.5085    -1.5240    -0.8349 C.ar    
  21 C21            4.3976    -1.3862    -2.2070 C.ar    
  22 C22            3.2124    -0.9361    -2.7599 C.ar    
  23 C23            2.1406    -0.6238    -1.9499 C.ar    
  24 C24            2.2432    -0.7600    -0.5676 C.ar    
  25 O25            1.2362    -0.6606     2.7293 O.2     
  26 C26           -1.2153     3.5557     0.1328 C.ar    
  27 C27           -0.1179     4.3029    -0.2745 C.ar    
  28 C28           -0.1413     5.6801    -0.1619 C.ar    
  29 C29           -1.2582     6.3144     0.3567 C.ar    
  30 C30           -2.3521     5.5714     0.7628 C.ar    
  31 C31           -2.3354     4.1949     0.6472 C.ar    
  32 Cl32          -1.2850     8.0445     0.4976 Cl      
  33 Cl33           1.2300     6.6154    -0.6700 Cl      
  34 H34           -0.7092    -0.3950     0.9863 H       
  35 H35           -0.3931    -0.3738    -0.7653 H       
  36 H36           -2.0064     1.6803    -0.2064 H       
  37 H37            7.7982     2.8152     3.1324 H       
  38 H38            7.2535     3.4086     4.7338 H       
  39 H39            6.8301    -1.4390     4.0876 H       
  40 H40            3.6703     1.6330     1.8765 H       
  41 H41            3.3520    -3.4112     1.2662 H       
  42 H42            2.7635    -2.8455     2.8650 H       
  43 H43            5.4331    -1.8751    -0.4009 H       
  44 H44            5.2343    -1.6297    -2.8449 H       
  45 H45            3.1258    -0.8284    -3.8310 H       
  46 H46            1.2186    -0.2725    -2.3890 H       
  47 H47            0.7530     3.8082    -0.6784 H       
  48 H48           -3.2217     6.0683     1.1671 H       
  49 H49           -3.1917     3.6160     0.9604 H       
@<TRIPOS>BOND
   1    1    2 1
   2    1    3 2
   3    1    4 am
   4    2   17 1
   5    2   34 1
   6    2   35 1
   7    4   26 1
   8    4   36 1
   9    5    6 1
  10    5    9 1
  11    6    7 1
  12    6   37 1
  13    6   38 1
  14    7    8 1
  15    8    9 ar
  16    8   10 ar
  17    9   13 ar
  18   10   11 ar
  19   10   39 1
  20   11   12 ar
  21   11   14 1
  22   12   13 ar
  23   12   15 1
  24   13   40 1
  25   14   16 1
  26   15   16 1
  27   15   18 1
  28   15   19 1
  29   16   41 1
  30   16   42 1
  31   17   18 am
  32   17   24 1
  33   18   25 2
  34   19   20 ar
  35   19   24 ar
  36   20   21 ar
  37   20   43 1
  38   21   22 ar
  39   21   44 1
  40   22   23 ar
  41   22   45 1
  42   23   24 ar
  43   23   46 1
  44   26   27 ar
  45   26   31 ar
  46   27   28 ar
  47   27   47 1
  48   28   29 ar
  49   28   33 1
  50   29   30 ar
  51   29   32 1
  52   30   31 ar
  53   30   48 1
  54   31   49 1

#	End of record

