#	Name: ASD01028831
#	Creating user name:	WinNT
#	Creation time:	15. 06. 2019 18:58

#	Modifying user name:	WinNT
#	Modification time:	15. 06. 2019 18:58

#	Program:	/corina/corina34_cracker 3.40 0067  02.08.2006

@<TRIPOS>MOLECULE
ASD01028831
  48   52    0    0    0
SMALL
NO_CHARGES


@<TRIPOS>ATOM
   1 C1            -0.0157     1.3062     0.0092 C.ar    
   2 N2             0.0021    -0.0041     0.0020 N.ar    
   3 C3             1.1642     2.0563     0.0020 C.ar    
   4 C4             2.3769     1.4184    -0.0130 C.ar    
   5 C5             2.3864     0.0120    -0.0206 C.ar    
   6 C6             1.1522    -0.6848    -0.0126 C.ar    
   7 C7             3.5911    -0.7103    -0.0358 C.ar    
   8 C8             3.5596    -2.0712    -0.0428 C.ar    
   9 C9             2.3472    -2.7584    -0.0350 C.ar    
  10 C10            1.1616    -2.0909    -0.0202 C.ar    
  11 C11            4.8528    -2.8448    -0.0597 C.3     
  12 C12            4.9070    -3.7057    -1.2954 C.2     
  13 N13            5.8401    -3.6435    -2.2699 N.pl3   
  14 C14            5.4941    -4.6050    -3.1885 C.2     
  15 N15            4.3956    -5.1885    -2.7371 N.2     
  16 N16            4.0607    -4.6532    -1.6152 N.2     
  17 N17            6.9720    -2.8524    -2.4767 N.2     
  18 C18            7.7151    -3.0191    -3.5485 C.2     
  19 C19            7.3860    -3.9981    -4.5101 C.2     
  20 C20            6.2906    -4.7832    -4.3358 C.2     
  21 C21            4.9324    -3.7323     1.1840 C.3     
  22 C22            8.9133    -2.1678    -3.7495 C.2     
  23 C23            9.3547    -1.1848    -2.9112 C.2     
  24 N24           10.4685    -0.6559    -3.4542 N.pl3   
  25 N25           10.7287    -1.3225    -4.6575 N.2     
  26 C26            9.8066    -2.2304    -4.8374 C.2     
  27 C27           11.2691     0.4304    -2.8840 C.3     
  28 O28            1.1084     3.4142     0.0093 O.3     
  29 C29           -0.1903     4.0102     0.0244 C.3     
  30 H30           -0.9658     1.8197     0.0165 H       
  31 H31            3.2995     1.9799    -0.0191 H       
  32 H32            4.5369    -0.1889    -0.0424 H       
  33 H33            2.3487    -3.8383    -0.0412 H       
  34 H34            0.2311    -2.6390    -0.0147 H       
  35 H35            5.6922    -2.1495    -0.0643 H       
  36 H36            8.0055    -4.1236    -5.3858 H       
  37 H37            6.0339    -5.5341    -5.0684 H       
  38 H38            5.8678    -4.2918     1.1718 H       
  39 H39            4.8932    -3.1096     2.0778 H       
  40 H40            4.0931    -4.4276     1.1886 H       
  41 H41            8.8943    -0.8853    -1.9814 H       
  42 H42            9.7373    -2.9063    -5.6769 H       
  43 H43           12.0405     0.0124    -2.2372 H       
  44 H44           11.7375     0.9975    -3.6884 H       
  45 H45           10.6250     1.0896    -2.3020 H       
  46 H46           -0.7431     3.6991    -0.8620 H       
  47 H47           -0.7265     3.6902     0.9178 H       
  48 H48           -0.0919     5.0957     0.0289 H       
@<TRIPOS>BOND
   1    1    2 ar
   2    1    3 ar
   3    1   30 1
   4    2    6 ar
   5    3    4 ar
   6    3   28 1
   7    4    5 ar
   8    4   31 1
   9    5    6 ar
  10    5    7 ar
  11    6   10 ar
  12    7    8 ar
  13    7   32 1
  14    8    9 ar
  15    8   11 1
  16    9   10 ar
  17    9   33 1
  18   10   34 1
  19   11   12 1
  20   11   21 1
  21   11   35 1
  22   12   13 1
  23   12   16 2
  24   13   14 1
  25   13   17 1
  26   14   15 2
  27   14   20 1
  28   15   16 1
  29   17   18 2
  30   18   19 1
  31   18   22 1
  32   19   20 2
  33   19   36 1
  34   20   37 1
  35   21   38 1
  36   21   39 1
  37   21   40 1
  38   22   23 2
  39   22   26 1
  40   23   24 1
  41   23   41 1
  42   24   25 1
  43   24   27 1
  44   25   26 2
  45   26   42 1
  46   27   43 1
  47   27   44 1
  48   27   45 1
  49   28   29 1
  50   29   46 1
  51   29   47 1
  52   29   48 1

#	End of record

