#	Name: ASD04590446
#	Creating user name:	WinNT
#	Creation time:	15. 06. 2019 20:50

#	Modifying user name:	WinNT
#	Modification time:	15. 06. 2019 20:50

#	Program:	/corina/corina34_cracker 3.40 0067  02.08.2006

@<TRIPOS>MOLECULE
ASD04590446
  56   60    0    0    0
SMALL
NO_CHARGES


@<TRIPOS>ATOM
   1 C1            -0.0167     1.3832     0.0096 C.ar    
   2 C2             0.0021    -0.0041     0.0020 C.ar    
   3 C3             2.4020     0.0223    -0.0203 C.ar    
   4 C4             2.3769     1.4283    -0.0129 C.ar    
   5 C5             1.1624     2.0986     0.0022 C.ar    
   6 N6             3.7040    -0.3552    -0.0352 N.2     
   7 C7             4.4709     0.7083    -0.0376 C.2     
   8 N8             3.6969     1.8375    -0.0242 N.pl3   
   9 C9             5.9482     0.6906    -0.0525 C.2     
  10 C10            6.7657    -0.4631    -0.0670 C.2     
  11 C11            8.0579    -0.0539    -0.0778 C.2     
  12 N12            8.0646     1.3050    -0.0704 N.pl3   
  13 N13            6.7360     1.7480    -0.0604 N.2     
  14 N14            6.3188    -1.7944    -0.0698 N.am    
  15 C15            7.2108    -2.8046    -0.0843 C.2     
  16 O16            8.4027    -2.5633    -0.0949 O.2     
  17 C17            6.7413    -4.2032    -0.0872 C.ar    
  18 C18            1.1969    -0.6870    -0.0126 C.ar    
  19 C19            6.5296    -4.8767     1.1206 C.ar    
  20 S20           -1.5158    -0.8988     0.0117 S.o2    
  21 N21           -1.9532    -1.1392    -1.5673 N.am    
  22 C22           -1.5117    -2.3362    -2.2991 C.3     
  23 C23           -2.7985    -0.1643    -2.2733 C.3     
  24 C24           -3.9714    -0.9124    -2.9159 C.3     
  25 N25           -3.4532    -2.0046    -3.7505 N.3     
  26 C26           -2.7379    -2.9943    -2.9406 C.3     
  27 C27            6.0897    -6.1870     1.1087 C.ar    
  28 C28            5.8593    -6.8324    -0.0927 C.ar    
  29 C29            6.0661    -6.1741    -1.2914 C.ar    
  30 C30            6.4998    -4.8617    -1.2978 C.ar    
  31 F31            6.7012    -4.2205    -2.4697 F       
  32 F32            6.7548    -4.2484     2.2952 F       
  33 O33           -1.2218    -2.1820     0.5465 O.2     
  34 O34           -2.4908    -0.0288     0.5701 O.2     
  35 C35           -4.5332    -2.6379    -4.5190 C.3     
  36 H36           -0.9614     1.9066     0.0169 H       
  37 H37            1.1403     3.1784     0.0079 H       
  38 H38            4.0155     2.7537    -0.0232 H       
  39 H39            8.9276    -0.6941    -0.0897 H       
  40 H40            8.8529     1.8702    -0.0750 H       
  41 H41            5.3681    -1.9869    -0.0613 H       
  42 H42            1.2037    -1.7669    -0.0177 H       
  43 H43           -0.8018    -2.0499    -3.0750 H       
  44 H44           -1.0407    -3.0350    -1.6077 H       
  45 H45           -3.1779     0.5721    -1.5649 H       
  46 H46           -2.2145     0.3344    -3.0468 H       
  47 H47           -4.6120    -1.3234    -2.1357 H       
  48 H48           -4.5470    -0.2237    -3.5344 H       
  49 H49           -2.4126    -3.8179    -3.5763 H       
  50 H50           -3.3997    -3.3745    -2.1625 H       
  51 H51            5.9257    -6.7085     2.0401 H       
  52 H52            5.5164    -7.8565    -0.0948 H       
  53 H53            5.8841    -6.6856    -2.2250 H       
  54 H54           -5.0022    -1.8962    -5.1656 H       
  55 H55           -4.1220    -3.4429    -5.1280 H       
  56 H56           -5.2768    -3.0444    -3.8335 H       
@<TRIPOS>BOND
   1    1    2 ar
   2    1    5 ar
   3    1   36 1
   4    2   18 ar
   5    2   20 1
   6    3    4 ar
   7    3    6 1
   8    3   18 ar
   9    4    5 ar
  10    4    8 1
  11    5   37 1
  12    6    7 2
  13    7    8 1
  14    7    9 1
  15    8   38 1
  16    9   10 1
  17    9   13 2
  18   10   11 2
  19   10   14 1
  20   11   12 1
  21   11   39 1
  22   12   13 1
  23   12   40 1
  24   14   15 am
  25   14   41 1
  26   15   16 2
  27   15   17 1
  28   17   19 ar
  29   17   30 ar
  30   18   42 1
  31   19   27 ar
  32   19   32 1
  33   20   21 am
  34   20   33 2
  35   20   34 2
  36   21   22 1
  37   21   23 1
  38   22   26 1
  39   22   43 1
  40   22   44 1
  41   23   24 1
  42   23   45 1
  43   23   46 1
  44   24   25 1
  45   24   47 1
  46   24   48 1
  47   25   26 1
  48   25   35 1
  49   26   49 1
  50   26   50 1
  51   27   28 ar
  52   27   51 1
  53   28   29 ar
  54   28   52 1
  55   29   30 ar
  56   29   53 1
  57   30   31 1
  58   35   54 1
  59   35   55 1
  60   35   56 1

#	End of record

