#	Name: ASD03240342
#	Creating user name:	WinNT
#	Creation time:	15. 06. 2019 20:34

#	Modifying user name:	WinNT
#	Modification time:	15. 06. 2019 20:34

#	Program:	/corina/corina34_cracker 3.40 0067  02.08.2006

@<TRIPOS>MOLECULE
ASD03240342
  77   83    0    0    0
SMALL
NO_CHARGES


@<TRIPOS>ATOM
   1 N1             1.3357     2.7551    -0.9033 N.ar    
   2 C2             1.5286     1.4536    -1.0804 C.ar    
   3 C3             2.8405     0.9214    -1.1241 C.ar    
   4 C4             3.9346     1.7750    -0.9804 C.ar    
   5 C5             3.6843     3.1325    -0.7978 C.ar    
   6 C6             2.3524     3.5905    -0.7631 C.ar    
   7 C7             2.0851     5.0344    -0.5684 C.ar    
   8 C8             1.0034     5.6388    -1.2084 C.ar    
   9 C9             0.7593     6.9841    -1.0228 C.ar    
  10 C10            1.5853     7.7333    -0.2040 C.ar    
  11 C11            2.6602     7.1396     0.4332 C.ar    
  12 C12            2.9109     5.7937     0.2603 C.ar    
  13 C13            4.8078     4.0859    -0.6394 C.ar    
  14 C14            5.8224     3.8254     0.2808 C.ar    
  15 C15            6.8660     4.7169     0.4239 C.ar    
  16 C16            6.9067     5.8672    -0.3434 C.ar    
  17 C17            5.9027     6.1313    -1.2577 C.ar    
  18 C18            4.8573     5.2442    -1.4141 C.ar    
  19 C19            0.4057     0.5270    -1.2353 C.2     
  20 C20            0.6469    -0.7827    -1.4120 C.2     
  21 N21            1.9093    -1.2968    -1.4539 N.am    
  22 C22            3.0043    -0.5221    -1.3212 C.2     
  23 C23            1.3135     9.2023    -0.0059 C.3     
  24 N24            0.4175     9.3837     1.1440 N.3     
  25 C25           -0.7050     8.4385     1.0908 C.3     
  26 C26           -0.0592    10.7702     1.2260 C.3     
  27 C27           -0.8688    10.9575     2.5112 C.3     
  28 C28           -2.0552     9.9895     2.5069 C.3     
  29 C29           -1.5338     8.5561     2.3719 C.3     
  30 N30           -2.8007    10.1232     3.7609 N.am    
  31 C31           -4.1392    10.4904     3.8779 C.ar    
  32 N32           -3.2733    10.1228     5.9111 N.am    
  33 C33           -2.3101     9.9065     4.9957 C.2     
  34 C34           -5.1181    10.8199     2.9536 C.ar    
  35 C35           -6.3931    11.1507     3.3882 C.ar    
  36 C36           -6.6888    11.1524     4.7469 C.ar    
  37 C37           -5.7161    10.8253     5.6698 C.ar    
  38 C38           -4.4396    10.4927     5.2416 C.ar    
  39 N39           -7.3840    11.4839     2.4571 N.am    
  40 C40           -7.4252    10.8585     1.2639 C.2     
  41 C41           -8.5248    11.1339     0.3269 C.2     
  42 C42           -8.5655    10.5166    -0.8506 C.2     
  43 O43           -6.5530    10.0663     0.9620 O.2     
  44 O44           -1.1688     9.5665     5.2465 O.2     
  45 O45            4.1169    -1.0156    -1.3641 O.2     
  46 H46            4.9449     1.3944    -1.0096 H       
  47 H47            0.3583     5.0551    -1.8484 H       
  48 H48           -0.0781     7.4532    -1.5179 H       
  49 H49            3.3018     7.7297     1.0708 H       
  50 H50            3.7476     5.3304     0.7618 H       
  51 H51            5.7914     2.9278     0.8807 H       
  52 H52            7.6522     4.5163     1.1366 H       
  53 H53            7.7255     6.5620    -0.2280 H       
  54 H54            5.9397     7.0311    -1.8538 H       
  55 H55            4.0766     5.4490    -2.1316 H       
  56 H56           -0.6097     0.8938    -1.2074 H       
  57 H57           -0.1913    -1.4543    -1.5248 H       
  58 H58            2.0229    -2.2514    -1.5835 H       
  59 H59            2.2525     9.7238     0.1792 H       
  60 H60            0.8426     9.6086    -0.9011 H       
  61 H61           -1.3327     8.6682     0.2298 H       
  62 H62           -0.3205     7.4227     0.9990 H       
  63 H63            0.7944    11.4480     1.2325 H       
  64 H64           -0.6900    10.9890     0.3644 H       
  65 H65           -0.2348    10.7523     3.3738 H       
  66 H66           -1.2356    11.9825     2.5641 H       
  67 H67           -2.7100    10.2196     1.6665 H       
  68 H68           -2.3758     7.8655     2.3253 H       
  69 H69           -0.9103     8.3131     3.2323 H       
  70 H70           -3.1739    10.0343     6.8719 H       
  71 H71           -4.8887    10.8193     1.8982 H       
  72 H72           -7.6828    11.4109     5.0811 H       
  73 H73           -5.9488    10.8282     6.7244 H       
  74 H74           -8.0409    12.1649     2.6707 H       
  75 H75           -9.2993    11.8373     0.5950 H       
  76 H76           -9.3730    10.7189    -1.5387 H       
  77 H77           -7.7911     9.8132    -1.1187 H       
@<TRIPOS>BOND
   1    1    2 ar
   2    1    6 ar
   3    2    3 ar
   4    2   19 1
   5    3    4 ar
   6    3   22 1
   7    4    5 ar
   8    4   46 1
   9    5    6 ar
  10    5   13 1
  11    6    7 1
  12    7    8 ar
  13    7   12 ar
  14    8    9 ar
  15    8   47 1
  16    9   10 ar
  17    9   48 1
  18   10   11 ar
  19   10   23 1
  20   11   12 ar
  21   11   49 1
  22   12   50 1
  23   13   14 ar
  24   13   18 ar
  25   14   15 ar
  26   14   51 1
  27   15   16 ar
  28   15   52 1
  29   16   17 ar
  30   16   53 1
  31   17   18 ar
  32   17   54 1
  33   18   55 1
  34   19   20 2
  35   19   56 1
  36   20   21 1
  37   20   57 1
  38   21   22 am
  39   21   58 1
  40   22   45 2
  41   23   24 1
  42   23   59 1
  43   23   60 1
  44   24   26 1
  45   24   25 1
  46   25   29 1
  47   25   61 1
  48   25   62 1
  49   26   27 1
  50   26   63 1
  51   26   64 1
  52   27   28 1
  53   27   65 1
  54   27   66 1
  55   28   29 1
  56   28   30 1
  57   28   67 1
  58   29   68 1
  59   29   69 1
  60   30   31 1
  61   30   33 am
  62   31   34 ar
  63   31   38 ar
  64   32   33 am
  65   32   38 1
  66   32   70 1
  67   33   44 2
  68   34   35 ar
  69   34   71 1
  70   35   36 ar
  71   35   39 1
  72   36   37 ar
  73   36   72 1
  74   37   38 ar
  75   37   73 1
  76   39   40 am
  77   39   74 1
  78   40   41 1
  79   40   43 2
  80   41   42 2
  81   41   75 1
  82   42   76 1
  83   42   77 1

#	End of record

