#	Name: ASD01812478
#	Creating user name:	WinNT
#	Creation time:	15. 06. 2019 19:28

#	Modifying user name:	WinNT
#	Modification time:	15. 06. 2019 19:28

#	Program:	/corina/corina34_cracker 3.40 0067  02.08.2006

@<TRIPOS>MOLECULE
ASD01812478
  56   60    0    0    0
SMALL
NO_CHARGES


@<TRIPOS>ATOM
   1 C1             0.0962     1.2390    -0.3346 C.ar    
   2 C2             0.1726    -0.1357    -0.4516 C.ar    
   3 C3             1.4049    -0.7538    -0.5552 C.ar    
   4 C4             2.5613     0.0004    -0.5442 C.ar    
   5 C5             2.4937     1.3853    -0.4279 C.ar    
   6 C6             1.2540     2.0039    -0.3207 C.ar    
   7 N7             3.6861     2.1160    -0.4263 N.3     
   8 C8             3.5152     3.4517     0.1571 C.3     
   9 C9             2.3088     4.1262    -0.5089 C.3     
  10 O10            1.1446     3.3551    -0.1943 O.3     
  11 C11            4.7559     1.3762     0.2565 C.3     
  12 C12            6.0871     2.0035    -0.0688 C.ar    
  13 C13            6.8476     1.5065    -1.1113 C.ar    
  14 C14            6.5428     3.0784     0.6720 C.ar    
  15 C15            7.7621     3.6556     0.3760 C.ar    
  16 C16            8.5305     3.1555    -0.6667 C.ar    
  17 C17            8.0680     2.0792    -1.4118 C.ar    
  18 N18            3.0866     6.4597    -0.2470 N.am    
  19 C19            2.1510     5.5277     0.0222 C.2     
  20 O20            1.1820     5.8169     0.6919 O.2     
  21 N21            9.7685     3.7393    -0.9696 N.pl3   
  22 C22           10.6115     3.3521    -1.9535 C.2     
  23 C23           11.6912     4.1668    -1.9148 C.2     
  24 C24           11.5031     5.0823    -0.8735 C.2     
  25 N25           10.3486     4.8308    -0.3105 N.2     
  26 C26            2.8846     7.7875     0.1455 C.ar    
  27 C27            3.9728     8.6263     0.3488 C.ar    
  28 C28            3.7701     9.9363     0.7356 C.ar    
  29 C29            2.4852    10.4133     0.9210 C.ar    
  30 C30            1.3999     9.5808     0.7194 C.ar    
  31 C31            1.5957     8.2710     0.3269 C.ar    
  32 C32            5.3733     8.1072     0.1480 C.3     
  33 H33           -0.8678     1.7200    -0.2582 H       
  34 H34           -0.7307    -0.7276    -0.4618 H       
  35 H35            1.4631    -1.8285    -0.6445 H       
  36 H36            3.5219    -0.4864    -0.6258 H       
  37 H37            3.3391     3.3629     1.2291 H       
  38 H38            4.4113     4.0462    -0.0211 H       
  39 H39            2.4512     4.1552    -1.5891 H       
  40 H40            4.5915     1.4109     1.3334 H       
  41 H41            4.7515     0.3390    -0.0785 H       
  42 H42            6.4872     0.6694    -1.6907 H       
  43 H43            5.9445     3.4672     1.4828 H       
  44 H44            8.1174     4.4954     0.9548 H       
  45 H45            8.6619     1.6902    -2.2256 H       
  46 H46            3.9000     6.2100    -0.7128 H       
  47 H47           10.4517     2.5387    -2.6458 H       
  48 H48           12.5474     4.1185    -2.5713 H       
  49 H49           12.1901     5.8647    -0.5867 H       
  50 H50            4.6159    10.5890     0.8939 H       
  51 H51            2.3294    11.4380     1.2243 H       
  52 H52            0.3978     9.9561     0.8653 H       
  53 H53            0.7474     7.6224     0.1655 H       
  54 H54            5.6753     8.2674    -0.8870 H       
  55 H55            6.0560     8.6374     0.8120 H       
  56 H56            5.4015     7.0412     0.3738 H       
@<TRIPOS>BOND
   1    1    2 ar
   2    1    6 ar
   3    1   33 1
   4    2    3 ar
   5    2   34 1
   6    3    4 ar
   7    3   35 1
   8    4    5 ar
   9    4   36 1
  10    5    7 1
  11    5    6 ar
  12    6   10 1
  13    7   11 1
  14    7    8 1
  15    8    9 1
  16    8   37 1
  17    8   38 1
  18    9   10 1
  19    9   19 1
  20    9   39 1
  21   11   12 1
  22   11   40 1
  23   11   41 1
  24   12   14 ar
  25   12   13 ar
  26   13   17 ar
  27   13   42 1
  28   14   15 ar
  29   14   43 1
  30   15   16 ar
  31   15   44 1
  32   16   17 ar
  33   16   21 1
  34   17   45 1
  35   18   19 am
  36   18   26 1
  37   18   46 1
  38   19   20 2
  39   21   22 1
  40   21   25 1
  41   22   23 2
  42   22   47 1
  43   23   24 1
  44   23   48 1
  45   24   25 2
  46   24   49 1
  47   26   27 ar
  48   26   31 ar
  49   27   28 ar
  50   27   32 1
  51   28   29 ar
  52   28   50 1
  53   29   30 ar
  54   29   51 1
  55   30   31 ar
  56   30   52 1
  57   31   53 1
  58   32   54 1
  59   32   55 1
  60   32   56 1

#	End of record

