#	Name: ASD01901257
#	Creating user name:	WinNT
#	Creation time:	15. 06. 2019 19:53

#	Modifying user name:	WinNT
#	Modification time:	15. 06. 2019 19:53

#	Program:	/corina/corina34_cracker 3.40 0067  02.08.2006

@<TRIPOS>MOLECULE
ASD01901257
  49   52    0    0    0
SMALL
NO_CHARGES


@<TRIPOS>ATOM
   1 C1            -0.0166     1.3750     0.0096 C.ar    
   2 C2             0.0021    -0.0041     0.0020 C.ar    
   3 C3             1.2078    -0.6830    -0.0131 C.ar    
   4 C4             2.4027     0.0149    -0.0203 C.ar    
   5 C5             2.3997     1.3941    -0.0129 C.ar    
   6 C6             1.1860     2.0866     0.0019 C.ar    
   7 C7             1.1748     3.5185     0.0093 C.1     
   8 C8             1.1656     4.6925     0.0153 C.1     
   9 C9             1.1543     6.1244     0.0226 C.ar    
  10 C10           -0.0679     8.1952     0.0502 C.ar    
  11 C11           -0.0607     6.8154     0.0432 C.ar    
  12 C12            2.3584     6.8345     0.0149 C.ar    
  13 C13            2.3439     8.2143     0.0220 C.ar    
  14 C14            1.1325     8.8989     0.0367 C.ar    
  15 F15           -1.2417     8.8638     0.0701 F       
  16 N16            1.1215    10.3003     0.0433 N.am    
  17 C17            1.1327    10.9583     1.2231 C.2     
  18 C18            1.0986    13.0672    -0.0261 C.2     
  19 N19            1.0947    12.3098    -1.1858 N.am    
  20 C20            1.1055    10.9654    -1.1235 C.2     
  21 O21            1.1010    10.3302    -2.1604 O.2     
  22 O22            1.1526    10.3473     2.2758 O.2     
  23 F23            3.5071     8.9014     0.0150 F       
  24 N24            1.1103    14.5522     1.5795 N.2     
  25 C25            1.0907    14.4318     0.2755 C.2     
  26 C26            1.1209    12.4186     1.2080 C.2     
  27 N27            1.1270    13.4006     2.1547 N.pl3   
  28 C28            1.0709    12.9770    -2.4899 C.3     
  29 C29            2.3160    12.5833    -3.2870 C.3     
  30 C30           -0.1821    12.5512    -3.2578 C.3     
  31 C31            1.1496    13.1791     3.6027 C.3     
  32 H32           -0.9584     1.9035     0.0169 H       
  33 H33           -0.9266    -0.5554     0.0083 H       
  34 H34            1.2163    -1.7630    -0.0190 H       
  35 H35            3.3399    -0.5217    -0.0315 H       
  36 H36            3.3331     1.9374    -0.0185 H       
  37 H37           -0.9928     6.2698     0.0533 H       
  38 H38            3.2990     6.3038     0.0038 H       
  39 H39            1.0740    15.2418    -0.4386 H       
  40 H40            1.0587    14.0573    -2.3451 H       
  41 H41            2.3282    11.5030    -3.4318 H       
  42 H42            2.2983    13.0797    -4.2573 H       
  43 H43            3.2087    12.8867    -2.7400 H       
  44 H44           -0.1998    13.0476    -4.2280 H       
  45 H45           -0.1699    11.4710    -3.4025 H       
  46 H46           -1.0691    12.8317    -2.6898 H       
  47 H47            0.1277    13.1162     3.9766 H       
  48 H48            1.6738    12.2484     3.8197 H       
  49 H49            1.6642    14.0078     4.0891 H       
@<TRIPOS>BOND
   1    1    2 ar
   2    1    6 ar
   3    1   32 1
   4    2    3 ar
   5    2   33 1
   6    3    4 ar
   7    3   34 1
   8    4    5 ar
   9    4   35 1
  10    5    6 ar
  11    5   36 1
  12    6    7 1
  13    7    8 3
  14    8    9 1
  15    9   12 ar
  16    9   11 ar
  17   10   11 ar
  18   10   14 ar
  19   10   15 1
  20   11   37 1
  21   12   13 ar
  22   12   38 1
  23   13   14 ar
  24   13   23 1
  25   14   16 1
  26   16   17 am
  27   16   20 am
  28   17   26 1
  29   17   22 2
  30   18   19 1
  31   18   26 2
  32   18   25 1
  33   19   20 am
  34   19   28 1
  35   20   21 2
  36   24   25 2
  37   24   27 1
  38   25   39 1
  39   26   27 1
  40   27   31 1
  41   28   29 1
  42   28   30 1
  43   28   40 1
  44   29   41 1
  45   29   42 1
  46   29   43 1
  47   30   44 1
  48   30   45 1
  49   30   46 1
  50   31   47 1
  51   31   48 1
  52   31   49 1

#	End of record

