#	Name: ASD09116018
#	Creating user name:	WinNT
#	Creation time:	15. 06. 2019 21:20

#	Modifying user name:	WinNT
#	Modification time:	15. 06. 2019 21:20

#	Program:	/corina/corina34_cracker 3.40 0067  02.08.2006

@<TRIPOS>MOLECULE
ASD09116018
  82   89    0    0    0
SMALL
NO_CHARGES


@<TRIPOS>ATOM
   1 C1             0.0720     1.3401    -0.2540 C.ar    
   2 C2             0.0861    -0.0505    -0.1731 C.ar    
   3 C3            -1.1046    -0.7240    -0.0489 C.ar    
   4 N4            -2.2318    -0.0116    -0.0105 N.ar    
   5 N5            -2.2479     1.2701    -0.0845 N.ar    
   6 C6            -1.1355     2.0006    -0.2015 C.ar    
   7 N7            -1.1344    -2.1172     0.0344 N.pl3   
   8 N8            -0.0310    -2.9853     0.0068 N.2     
   9 C9            -0.5010    -4.2053     0.1112 C.2     
  10 N10           -1.8350    -4.1523     0.2027 N.2     
  11 C11           -2.2323    -2.8985     0.1637 C.2     
  12 N12            0.2660    -5.3702     0.1240 N.pl3   
  13 C13           -0.3619    -6.6218     0.1283 C.ar    
  14 C14           -1.5881    -6.7855    -0.5026 C.ar    
  15 C15            0.2446    -7.7005     0.7585 C.ar    
  16 C16           -0.3757    -8.9361     0.7624 C.ar    
  17 C17           -1.6062    -9.0975     0.1353 C.ar    
  18 C18           -2.2084    -8.0196    -0.4985 C.ar    
  19 N19           -3.5402    -2.4576     0.2330 N.pl3   
  20 N20           -2.2354   -10.3497     0.1384 N.3     
  21 F21            0.2137    -9.9862     1.3749 F       
  22 C22           -3.5473   -10.2778     0.7944 C.3     
  23 C23           -1.3822   -11.3659     0.7675 C.3     
  24 C24           -2.0352   -12.7424     0.6236 C.3     
  25 C25           -3.4127   -12.7208     1.2919 C.3     
  26 C26           -4.2650   -11.6218     0.6513 C.3     
  27 N27           -4.0689   -14.0219     1.1063 N.3     
  28 C28           -3.3009   -15.0987     1.7580 C.3     
  29 C29           -5.4357   -14.0111     1.6696 C.3     
  30 C30           -5.6565   -15.4498     2.1998 C.3     
  31 C31           -4.2499   -15.7991     2.7532 C.3     
  32 C32            1.4437     1.9528    -0.3879 C.3     
  33 C33            2.2727     1.4941     0.8243 C.3     
  34 C34            2.2882    -0.0319     0.9138 C.3     
  35 C35            1.4706    -0.6460    -0.2358 C.3     
  36 C36            2.0974     1.3479    -1.6424 C.3     
  37 C37            2.1134    -0.1781    -1.5531 C.3     
  38 C38           -1.1998     3.4802    -0.2840 C.ar    
  39 C39           -0.4228     4.1602    -1.2160 C.ar    
  40 C40           -0.4890     5.5513    -1.2880 C.ar    
  41 C41           -1.3342     6.2520    -0.4245 C.ar    
  42 C42           -2.1018     5.5695     0.4980 C.ar    
  43 C43           -2.0438     4.1914     0.5690 C.ar    
  44 C44            0.3078     6.2595    -2.2441 C.1     
  45 N45            0.9398     6.8213    -3.0027 N.1     
  46 H46            1.2343    -5.3133     0.1300 H       
  47 H47           -2.0572    -5.9473    -0.9964 H       
  48 H48            1.2005    -7.5744     1.2450 H       
  49 H49           -3.1644    -8.1449    -0.9853 H       
  50 H50           -4.2639    -3.0978     0.3184 H       
  51 H51           -3.7345    -1.5080     0.1963 H       
  52 H52           -3.4127   -10.0487     1.8515 H       
  53 H53           -4.1448    -9.4954     0.3266 H       
  54 H54           -0.4072   -11.3737     0.2802 H       
  55 H55           -1.2577   -11.1317     1.8248 H       
  56 H56           -2.1474   -12.9832    -0.4335 H       
  57 H57           -1.4093   -13.4942     1.1043 H       
  58 H58           -3.2978   -12.5184     2.3568 H       
  59 H59           -5.2321   -11.5731     1.1517 H       
  60 H60           -4.4122   -11.8450    -0.4054 H       
  61 H61           -2.9553   -15.8125     1.0102 H       
  62 H62           -2.4497   -14.6763     2.2919 H       
  63 H63           -5.5043   -13.2915     2.4854 H       
  64 H64           -6.1642   -13.7768     0.8935 H       
  65 H65           -6.4029   -15.4631     2.9940 H       
  66 H66           -5.9367   -16.1251     1.3913 H       
  67 H67           -4.0893   -16.8772     2.7451 H       
  68 H68           -4.1201   -15.3966     3.7578 H       
  69 H69            1.3875     3.0401    -0.4397 H       
  70 H70            3.2945     1.8595     0.7213 H       
  71 H71            1.8365     1.9041     1.7352 H       
  72 H72            3.3173    -0.3860     0.8534 H       
  73 H73            1.8589    -0.3414     1.8667 H       
  74 H74            1.4371    -1.7328    -0.1604 H       
  75 H75            1.5337     1.6514    -2.5246 H       
  76 H76            3.1203     1.7146    -1.7282 H       
  77 H77            3.1438    -0.5309    -1.5966 H       
  78 H78            1.5573    -0.5941    -2.3932 H       
  79 H79            0.2292     3.6132    -1.8809 H       
  80 H80           -1.3872     7.3294    -0.4784 H       
  81 H81           -2.7535     6.1153     1.1642 H       
  82 H82           -2.6469     3.6636     1.2929 H       
@<TRIPOS>BOND
   1    1    2 ar
   2    1   32 1
   3    1    6 ar
   4    2    3 ar
   5    2   35 1
   6    3    4 ar
   7    3    7 1
   8    4    5 ar
   9    5    6 ar
  10    6   38 1
  11    7    8 1
  12    7   11 1
  13    8    9 2
  14    9   10 1
  15    9   12 1
  16   10   11 2
  17   11   19 1
  18   12   13 1
  19   12   46 1
  20   13   14 ar
  21   13   15 ar
  22   14   18 ar
  23   14   47 1
  24   15   16 ar
  25   15   48 1
  26   16   17 ar
  27   16   21 1
  28   17   18 ar
  29   17   20 1
  30   18   49 1
  31   19   50 1
  32   19   51 1
  33   20   22 1
  34   20   23 1
  35   22   26 1
  36   22   52 1
  37   22   53 1
  38   23   24 1
  39   23   54 1
  40   23   55 1
  41   24   25 1
  42   24   56 1
  43   24   57 1
  44   25   26 1
  45   25   27 1
  46   25   58 1
  47   26   59 1
  48   26   60 1
  49   27   28 1
  50   27   29 1
  51   28   31 1
  52   28   61 1
  53   28   62 1
  54   29   30 1
  55   29   63 1
  56   29   64 1
  57   30   31 1
  58   30   65 1
  59   30   66 1
  60   31   67 1
  61   31   68 1
  62   32   33 1
  63   32   36 1
  64   32   69 1
  65   33   34 1
  66   33   70 1
  67   33   71 1
  68   34   35 1
  69   34   72 1
  70   34   73 1
  71   35   37 1
  72   35   74 1
  73   36   37 1
  74   36   75 1
  75   36   76 1
  76   37   77 1
  77   37   78 1
  78   38   39 ar
  79   38   43 ar
  80   39   40 ar
  81   39   79 1
  82   40   41 ar
  83   40   44 1
  84   41   42 ar
  85   41   80 1
  86   42   43 ar
  87   42   81 1
  88   43   82 1
  89   44   45 3

#	End of record

