#	Name: ASD02039411
#	Creating user name:	WinNT
#	Creation time:	15. 06. 2019 20:18

#	Modifying user name:	WinNT
#	Modification time:	15. 06. 2019 20:18

#	Program:	/corina/corina34_cracker 3.40 0067  02.08.2006

@<TRIPOS>MOLECULE
ASD02039411
  52   55    0    0    0
SMALL
NO_CHARGES


@<TRIPOS>ATOM
   1 C1            -0.1973     0.8850    -0.9085 C.ar    
   2 C2            -0.0115    -0.4855    -0.8984 C.ar    
   3 C3             0.9458     1.8010    -0.5547 C.3     
   4 N4             1.7812     2.0191    -1.7382 N.am    
   5 C5             1.4148     3.0488    -2.7138 C.3     
   6 C6             2.8868     1.2725    -1.9296 C.2     
   7 C7             3.1987     0.1679    -1.0060 C.2     
   8 C8             4.2101    -0.7372    -1.1437 C.2     
   9 N9             2.5356    -0.1311     0.1403 N.2     
  10 C10            3.0945    -1.1697     0.6912 C.2     
  11 N11            4.1378    -1.5719    -0.0803 N.pl3   
  12 O12            3.6270     1.5105    -2.8648 O.2     
  13 C13           -1.0553    -1.3330    -1.2228 C.ar    
  14 C14           -2.4804     0.5695    -1.5800 C.ar    
  15 C15           -1.4256     1.4162    -1.2474 C.ar    
  16 C16           -3.8026     1.1349    -1.9455 C.ar    
  17 C17           -4.4558     0.7178    -3.1095 C.ar    
  18 C18           -4.4145     2.0847    -1.1318 C.ar    
  19 N19           -5.5889     2.5886    -1.4543 N.ar    
  20 C20           -6.2281     2.2191    -2.5492 C.ar    
  21 C21           -5.6863     1.2742    -3.4071 C.ar    
  22 C22            5.0251    -2.7060     0.1896 C.3     
  23 C23            2.5562     4.0621    -2.8424 C.3     
  24 C24            2.1977     5.0888    -3.9200 C.3     
  25 O25            1.9513     4.4143    -5.1555 O.3     
  26 C26            0.8637     3.4885    -5.1081 C.3     
  27 C27            1.1686     2.3976    -4.0782 C.3     
  28 C28           -2.2912    -0.8132    -1.5592 C.ar    
  29 F29           -3.3104    -1.6411    -1.8769 F       
  30 F30           -7.4303     2.7655    -2.8345 F       
  31 H31            0.9527    -0.8956    -0.6365 H       
  32 H32            0.5519     2.7560    -0.2070 H       
  33 H33            1.5450     1.3462     0.2342 H       
  34 H34            0.5100     3.5588    -2.3832 H       
  35 H35            4.9303    -0.7799    -1.9474 H       
  36 H36            2.7812    -1.6347     1.6142 H       
  37 H37           -0.9044    -2.4023    -1.2136 H       
  38 H38           -1.5665     2.4869    -1.2615 H       
  39 H39           -4.0103    -0.0202    -3.7600 H       
  40 H40           -3.9223     2.4114    -0.2277 H       
  41 H41           -6.2173     0.9794    -4.3002 H       
  42 H42            4.6161    -3.6051    -0.2715 H       
  43 H43            6.0122    -2.5018    -0.2252 H       
  44 H44            5.1071    -2.8549     1.2662 H       
  45 H45            2.7014     4.5703    -1.8891 H       
  46 H46            3.4732     3.5442    -3.1235 H       
  47 H47            1.3034     5.6344    -3.6191 H       
  48 H48            3.0249     5.7875    -4.0460 H       
  49 H49           -0.0480     4.0132    -4.8227 H       
  50 H50            0.7299     3.0344    -6.0899 H       
  51 H51            2.0576     1.8460    -4.3842 H       
  52 H52            0.3214     1.7153    -4.0087 H       
@<TRIPOS>BOND
   1    1    2 ar
   2    1    3 1
   3    1   15 ar
   4    2   13 ar
   5    2   31 1
   6    3    4 1
   7    3   32 1
   8    3   33 1
   9    4    5 1
  10    4    6 am
  11    5   23 1
  12    5   27 1
  13    5   34 1
  14    6    7 1
  15    6   12 2
  16    7    8 2
  17    7    9 1
  18    8   11 1
  19    8   35 1
  20    9   10 2
  21   10   11 1
  22   10   36 1
  23   11   22 1
  24   13   28 ar
  25   13   37 1
  26   14   15 ar
  27   14   16 1
  28   14   28 ar
  29   15   38 1
  30   16   17 ar
  31   16   18 ar
  32   17   21 ar
  33   17   39 1
  34   18   19 ar
  35   18   40 1
  36   19   20 ar
  37   20   21 ar
  38   20   30 1
  39   21   41 1
  40   22   42 1
  41   22   43 1
  42   22   44 1
  43   23   24 1
  44   23   45 1
  45   23   46 1
  46   24   25 1
  47   24   47 1
  48   24   48 1
  49   25   26 1
  50   26   27 1
  51   26   49 1
  52   26   50 1
  53   27   51 1
  54   27   52 1
  55   28   29 1

#	End of record

