#	Name: ASD04550002
#	Creating user name:	WinNT
#	Creation time:	15. 06. 2019 20:49

#	Modifying user name:	WinNT
#	Modification time:	15. 06. 2019 20:49

#	Program:	/corina/corina34_cracker 3.40 0067  02.08.2006

@<TRIPOS>MOLECULE
ASD04550002
  33   33    0    0    0
SMALL
NO_CHARGES


@<TRIPOS>ATOM
   1 C1            -0.0167     1.3781     0.0096 C.ar    
   2 C2             0.0021    -0.0041     0.0020 C.ar    
   3 C3             1.2084    -0.6789    -0.0132 C.ar    
   4 C4             2.3960     0.0285    -0.0212 C.ar    
   5 C5             2.3773     1.4107    -0.0145 C.ar    
   6 C6             1.1710     2.0855     0.0021 C.ar    
   7 C7            -1.2926    -0.7753     0.0108 C.3     
   8 C8            -2.1123    -0.4099    -1.2284 C.3     
   9 C9            -0.9927    -2.2755    -0.0003 C.3     
  10 C10           -2.0874    -0.4233     1.2699 C.3     
  11 C11            3.6720     2.1819    -0.0228 C.3     
  12 C12            3.7296     3.0684    -1.2685 C.3     
  13 C13            3.7514     3.0435     1.2111 C.2     
  14 O14            2.8492     3.0325     2.0147 O.2     
  15 O15            4.8244     3.8232     1.4173 O.3     
  16 H16           -0.9592     1.9054     0.0170 H       
  17 H17            1.2231    -1.7588    -0.0184 H       
  18 H18            3.3386    -0.4987    -0.0324 H       
  19 H19            1.1563     3.1654     0.0069 H       
  20 H20           -1.5461    -0.6606    -2.1254 H       
  21 H21           -3.0487    -0.9677    -1.2221 H       
  22 H22           -2.3260     0.6589    -1.2205 H       
  23 H23           -0.4088    -2.5358     0.8826 H       
  24 H24           -1.9291    -2.8333     0.0061 H       
  25 H25           -0.4265    -2.5263    -0.8973 H       
  26 H26           -2.3010     0.6455     1.2778 H       
  27 H27           -3.0238    -0.9811     1.2763 H       
  28 H28           -1.5034    -0.6836     2.1527 H       
  29 H29            4.5100     1.4850    -0.0338 H       
  30 H30            3.6722     2.4453    -2.1609 H       
  31 H31            2.8916     3.7654    -1.2575 H       
  32 H32            4.6661     3.6262    -1.2744 H       
  33 H33            4.8300     4.3581     2.2229 H       
@<TRIPOS>BOND
   1    1    2 ar
   2    1    6 ar
   3    1   16 1
   4    2    3 ar
   5    2    7 1
   6    3    4 ar
   7    3   17 1
   8    4    5 ar
   9    4   18 1
  10    5    6 ar
  11    5   11 1
  12    6   19 1
  13    7    8 1
  14    7    9 1
  15    7   10 1
  16    8   20 1
  17    8   21 1
  18    8   22 1
  19    9   23 1
  20    9   24 1
  21    9   25 1
  22   10   26 1
  23   10   27 1
  24   10   28 1
  25   11   12 1
  26   11   13 1
  27   11   29 1
  28   12   30 1
  29   12   31 1
  30   12   32 1
  31   13   14 2
  32   13   15 1
  33   15   33 1

#	End of record

