#	Name: ASD01903342
#	Creating user name:	WinNT
#	Creation time:	15. 06. 2019 19:54

#	Modifying user name:	WinNT
#	Modification time:	15. 06. 2019 19:54

#	Program:	/corina/corina34_cracker 3.40 0067  02.08.2006

@<TRIPOS>MOLECULE
ASD01903342
  41   44    0    0    0
SMALL
NO_CHARGES


@<TRIPOS>ATOM
   1 C1            -0.0233     1.3665     0.1886 C.ar    
   2 C2             0.0102    -0.0074     0.3038 C.ar    
   3 C3             1.2067    -0.6995     0.1544 C.ar    
   4 C4             2.3659    -0.0072    -0.1107 C.ar    
   5 C5             2.3295     1.3778    -0.2268 C.ar    
   6 C6             1.1415     2.0621    -0.0778 C.ar    
   7 S7             1.5172    -2.4329     0.2531 S.o2    
   8 N8             3.1423    -2.6379    -0.0147 N.am    
   9 S9             3.7371    -1.1072    -0.2547 S.o2    
  10 O10            4.1618    -1.0473    -1.6094 O.2     
  11 O11            4.5936    -0.8303     0.8448 O.2     
  12 O12            1.2802    -2.8090     1.6028 O.2     
  13 O13            0.8484    -3.0261    -0.8515 O.2     
  14 C14            3.8563    -3.8407    -0.0336 C.ar    
  15 C15            5.2241    -3.8327    -0.2750 C.ar    
  16 C16            5.9287    -5.0198    -0.2931 C.ar    
  17 C17            5.2699    -6.2219    -0.0704 C.ar    
  18 C18            3.9023    -6.2300     0.1710 C.ar    
  19 C19            3.1985    -5.0425     0.1948 C.ar    
  20 N20            5.9847    -7.4262    -0.0898 N.am    
  21 C21            5.4118    -8.5420    -0.5829 C.2     
  22 C22            6.1998    -9.7889    -0.6989 C.ar    
  23 O23            4.2477    -8.5240    -0.9324 O.2     
  24 C24            5.6014   -10.9415    -1.2103 C.ar    
  25 C25            6.3561   -12.1037    -1.3123 C.ar    
  26 C26            7.6776   -12.0708    -0.9003 C.ar    
  27 C27            8.2060   -10.8895    -0.4020 C.ar    
  28 N28            7.4729    -9.8016    -0.3206 N.ar    
  29 F29            4.3078   -10.9274    -1.5999 F       
  30 H30           -0.9572     1.8970     0.3018 H       
  31 H31           -0.9001    -0.5499     0.5119 H       
  32 H32            3.2388     1.9220    -0.4349 H       
  33 H33            1.1209     3.1380    -0.1697 H       
  34 H34            5.7363    -2.8980    -0.4489 H       
  35 H35            6.9922    -5.0136    -0.4809 H       
  36 H36            3.3900    -7.1649     0.3441 H       
  37 H37            2.1350    -5.0488     0.3829 H       
  38 H38            6.8920    -7.4571     0.2518 H       
  39 H39            5.9218   -13.0119    -1.7035 H       
  40 H40            8.2911   -12.9572    -0.9661 H       
  41 H41            9.2366   -10.8619    -0.0801 H       
@<TRIPOS>BOND
   1    1    2 ar
   2    1    6 ar
   3    1   30 1
   4    2    3 ar
   5    2   31 1
   6    3    4 ar
   7    3    7 1
   8    4    5 ar
   9    4    9 1
  10    5    6 ar
  11    5   32 1
  12    6   33 1
  13    7    8 am
  14    7   12 2
  15    7   13 2
  16    8    9 am
  17    8   14 1
  18    9   10 2
  19    9   11 2
  20   14   15 ar
  21   14   19 ar
  22   15   16 ar
  23   15   34 1
  24   16   17 ar
  25   16   35 1
  26   17   18 ar
  27   17   20 1
  28   18   19 ar
  29   18   36 1
  30   19   37 1
  31   20   21 am
  32   20   38 1
  33   21   22 1
  34   21   23 2
  35   22   24 ar
  36   22   28 ar
  37   24   25 ar
  38   24   29 1
  39   25   26 ar
  40   25   39 1
  41   26   27 ar
  42   26   40 1
  43   27   28 ar
  44   27   41 1

#	End of record

