#	Name: ASD01881633
#	Creating user name:	WinNT
#	Creation time:	15. 06. 2019 19:43

#	Modifying user name:	WinNT
#	Modification time:	15. 06. 2019 19:43

#	Program:	/corina/corina34_cracker 3.40 0067  02.08.2006

@<TRIPOS>MOLECULE
ASD01881633
  54   57    0    0    0
SMALL
NO_CHARGES


@<TRIPOS>ATOM
   1 N1            -0.0154     1.2839     0.0091 N.pl3   
   2 N2             0.0021    -0.0041     0.0020 N.2     
   3 N3             1.2033    -0.4649    -0.0119 N.2     
   4 C4             2.0741     0.5645    -0.0147 C.ar    
   5 C5             1.2843     1.7298    -0.0009 C.ar    
   6 C6             3.4670     0.6759    -0.0271 C.ar    
   7 C7             4.0484     1.9285    -0.0255 C.ar    
   8 C8             3.2560     3.0739    -0.0118 C.ar    
   9 C9             1.8924     2.9784    -0.0004 C.ar    
  10 O10            5.4033     2.0444    -0.0370 O.3     
  11 C11            5.9411     3.3683    -0.0346 C.3     
  12 C12           10.1207     3.1758    -0.0722 C.ar    
  13 N13            9.5274     4.3618    -0.0609 N.ar    
  14 C14            8.2092     4.4576    -0.0490 C.ar    
  15 C15            7.4465     3.2990    -0.0485 C.ar    
  16 C16            8.0991     2.0755    -0.0605 C.ar    
  17 N17            9.4208     2.0497    -0.0720 N.ar    
  18 C18           11.6021     3.1076    -0.0915 C.ar    
  19 C19           12.2453     1.8712    -0.1037 C.ar    
  20 C20           13.6241     1.8137    -0.1216 C.ar    
  21 C21           14.3675     2.9801    -0.1271 C.ar    
  22 C22           13.7346     4.2101    -0.1147 C.ar    
  23 C23           12.3563     4.2796    -0.1034 C.ar    
  24 C24            7.5429     5.8093    -0.0357 C.3     
  25 C25           -1.2133     2.1272     0.0196 C.3     
  26 C26           -1.6228     2.4135     1.4657 C.3     
  27 C27           -0.4829     3.1377     2.1848 C.3     
  28 C28           -2.8739     3.2942     1.4767 C.3     
  29 C29           -1.9211     1.0947     2.1819 C.3     
  30 Br30           4.5472    -0.8761    -0.0451 Br      
  31 H31            3.7236     4.0474    -0.0103 H       
  32 H32            1.2882     3.8735     0.0099 H       
  33 H33            5.5939     3.9031    -0.9187 H       
  34 H34            5.6098     3.8935     0.8612 H       
  35 H35            7.5345     1.1549    -0.0600 H       
  36 H36           11.6658     0.9598    -0.0987 H       
  37 H37           14.1235     0.8561    -0.1310 H       
  38 H38           15.4463     2.9304    -0.1408 H       
  39 H39           14.3200     5.1176    -0.1183 H       
  40 H40           11.8630     5.2404    -0.0990 H       
  41 H41            7.3735     6.1409    -1.0601 H       
  42 H42            6.5884     5.7387     0.4859 H       
  43 H43            8.1849     6.5258     0.4767 H       
  44 H44           -1.0007     3.0667    -0.4906 H       
  45 H45           -2.0254     1.6113    -0.4926 H       
  46 H46           -0.2704     4.0772     1.6746 H       
  47 H47           -0.7746     3.3417     3.2150 H       
  48 H48            0.4084     2.5103     2.1769 H       
  49 H49           -3.6859     2.7782     0.9645 H       
  50 H50           -3.1656     3.4981     2.5070 H       
  51 H51           -2.6613     4.2337     0.9666 H       
  52 H52           -1.0299     0.4673     2.1740 H       
  53 H53           -2.2129     1.2987     3.2121 H       
  54 H54           -2.7332     0.5788     1.6696 H       
@<TRIPOS>BOND
   1    1    2 1
   2    1    5 1
   3    1   25 1
   4    2    3 2
   5    3    4 1
   6    4    5 ar
   7    4    6 ar
   8    5    9 ar
   9    6    7 ar
  10    6   30 1
  11    7    8 ar
  12    7   10 1
  13    8    9 ar
  14    8   31 1
  15    9   32 1
  16   10   11 1
  17   11   15 1
  18   11   33 1
  19   11   34 1
  20   12   13 ar
  21   12   17 ar
  22   12   18 1
  23   13   14 ar
  24   14   15 ar
  25   14   24 1
  26   15   16 ar
  27   16   17 ar
  28   16   35 1
  29   18   19 ar
  30   18   23 ar
  31   19   20 ar
  32   19   36 1
  33   20   21 ar
  34   20   37 1
  35   21   22 ar
  36   21   38 1
  37   22   23 ar
  38   22   39 1
  39   23   40 1
  40   24   41 1
  41   24   42 1
  42   24   43 1
  43   25   26 1
  44   25   44 1
  45   25   45 1
  46   26   27 1
  47   26   28 1
  48   26   29 1
  49   27   46 1
  50   27   47 1
  51   27   48 1
  52   28   49 1
  53   28   50 1
  54   28   51 1
  55   29   52 1
  56   29   53 1
  57   29   54 1

#	End of record

