#	Name: ASD01903125
#	Creating user name:	WinNT
#	Creation time:	15. 06. 2019 19:54

#	Modifying user name:	WinNT
#	Modification time:	15. 06. 2019 19:54

#	Program:	/corina/corina34_cracker 3.40 0067  02.08.2006

@<TRIPOS>MOLECULE
ASD01903125
  35   37    0    0    0
SMALL
NO_CHARGES


@<TRIPOS>ATOM
   1 N1            -0.0426     1.3989    -0.0019 N.am    
   2 C2            -0.0171    -0.0043    -0.0067 C.ar    
   3 C3            -0.2417    -0.6992    -1.1886 C.ar    
   4 C4            -0.2162    -2.0804    -1.1931 C.ar    
   5 C5             0.0340    -2.7737    -0.0160 C.ar    
   6 C6             0.2585    -2.0780     1.1654 C.ar    
   7 C7             0.2381    -0.6979     1.1686 C.ar    
   8 C8             1.0478     2.1440    -0.2214 C.2     
   9 C9             0.6735     3.6082    -0.1465 C.3     
  10 C10           -0.8383     3.5798     0.1575 C.3     
  11 C11           -1.1604     2.1025     0.2168 C.2     
  12 O12            2.1591     1.7138    -0.4443 O.2     
  13 O13           -2.2556     1.6308     0.4350 O.2     
  14 Cl14          -0.5549     0.1681    -2.6595 Cl      
  15 N15            0.0595    -4.1727    -0.0199 N.am    
  16 C16            0.5514    -4.8348    -1.0858 C.2     
  17 O17            0.8941    -4.2210    -2.0772 O.2     
  18 C18            0.6742    -6.3105    -1.0490 C.ar    
  19 N19            0.2981    -6.9753     0.0369 N.ar    
  20 C20            0.3905    -8.2862     0.1100 C.ar    
  21 C21            0.8884    -9.0251    -0.9533 C.ar    
  22 C22            1.2922    -8.3698    -2.1056 C.ar    
  23 C23            1.1780    -6.9892    -2.1561 C.ar    
  24 Cl24          -0.1170    -9.1013     1.5563 Cl      
  25 H25           -0.3910    -2.6210    -2.1115 H       
  26 H26            0.4530    -2.6172     2.0808 H       
  27 H27            0.4130    -0.1575     2.0871 H       
  28 H28            1.2174     4.1025     0.6584 H       
  29 H29            0.8640     4.1021    -1.0994 H       
  30 H30           -1.0464     4.0600     1.1136 H       
  31 H31           -1.3998     4.0595    -0.6442 H       
  32 H32           -0.2768    -4.6661     0.7446 H       
  33 H33            0.9610   -10.1004    -0.8836 H       
  34 H34            1.6835    -8.9226    -2.9468 H       
  35 H35            1.4832    -6.4466    -3.0386 H       
@<TRIPOS>BOND
   1    1    2 1
   2    1    8 am
   3    1   11 am
   4    2    3 ar
   5    2    7 ar
   6    3    4 ar
   7    3   14 1
   8    4    5 ar
   9    4   25 1
  10    5    6 ar
  11    5   15 1
  12    6    7 ar
  13    6   26 1
  14    7   27 1
  15    8    9 1
  16    8   12 2
  17    9   10 1
  18    9   28 1
  19    9   29 1
  20   10   11 1
  21   10   30 1
  22   10   31 1
  23   11   13 2
  24   15   16 am
  25   15   32 1
  26   16   17 2
  27   16   18 1
  28   18   19 ar
  29   18   23 ar
  30   19   20 ar
  31   20   21 ar
  32   20   24 1
  33   21   22 ar
  34   21   33 1
  35   22   23 ar
  36   22   34 1
  37   23   35 1

#	End of record

