#	Name: ASD00310445
#	Creating user name:	WinNT
#	Creation time:	15. 06. 2019 18:34

#	Modifying user name:	WinNT
#	Modification time:	15. 06. 2019 18:34

#	Program:	/corina/corina34_cracker 3.40 0067  02.08.2006

@<TRIPOS>MOLECULE
ASD00310445
  40   43    0    0    0
SMALL
NO_CHARGES


@<TRIPOS>ATOM
   1 N1            -0.0163     1.3503     0.0095 N.pl3   
   2 C2             0.0021    -0.0041     0.0020 C.2     
   3 C3             1.2920    -0.4482    -0.0127 C.2     
   4 C4             2.1474     0.7542    -0.0144 C.ar    
   5 C5             3.5230     0.9580    -0.0264 C.ar    
   6 C6             4.0248     2.2531    -0.0243 C.ar    
   7 C7             3.1473     3.3440    -0.0100 C.ar    
   8 C8             1.7848     3.1439     0.0024 C.ar    
   9 C9             1.2694     1.8504    -0.0001 C.ar    
  10 C10            1.7401    -1.8453    -0.0237 C.2     
  11 O11            2.9285    -2.1026    -0.0361 O.2     
  12 O12            0.8341    -2.8440    -0.0202 O.3     
  13 C13            5.4908     2.4805    -0.0366 C.ar    
  14 C14            6.0546     3.3582    -0.9606 C.ar    
  15 C15            7.4189     3.5663    -0.9671 C.ar    
  16 C16            8.2264     2.9053    -0.0592 C.ar    
  17 C17            7.6722     2.0327     0.8599 C.ar    
  18 C18            6.3084     1.8217     0.8796 C.ar    
  19 C19            9.7155     3.1363    -0.0716 C.3     
  20 C20           10.3745     2.9818     1.3092 C.3     
  21 C21           11.5365     2.2779     0.5887 C.3     
  22 C22           10.5263     1.9051    -0.5092 C.3     
  23 O23           10.0850     4.3381    -0.7509 O.3     
  24 F24            3.6406     4.6017    -0.0080 F       
  25 H25           -0.8206     1.8924     0.0164 H       
  26 H26           -0.8729    -0.6372     0.0073 H       
  27 H27            4.1971     0.1142    -0.0370 H       
  28 H28            1.1152     3.9912     0.0140 H       
  29 H29            1.1772    -3.7481    -0.0278 H       
  30 H30            5.4252     3.8743    -1.6704 H       
  31 H31            7.8570     4.2463    -1.6828 H       
  32 H32            8.3073     1.5190     1.5664 H       
  33 H33            5.8762     1.1435     1.6006 H       
  34 H34           10.6552     3.9300     1.7677 H       
  35 H35            9.8219     2.3303     1.9863 H       
  36 H36           12.3173     2.9592     0.2505 H       
  37 H37           11.9295     1.4178     1.1308 H       
  38 H38           10.0152     0.9593    -0.3293 H       
  39 H39           10.9296     1.9841    -1.5187 H       
  40 H40            9.6920     4.4299    -1.6297 H       
@<TRIPOS>BOND
   1    1    2 1
   2    1    9 1
   3    1   25 1
   4    2    3 2
   5    2   26 1
   6    3    4 1
   7    3   10 1
   8    4    5 ar
   9    4    9 ar
  10    5    6 ar
  11    5   27 1
  12    6    7 ar
  13    6   13 1
  14    7    8 ar
  15    7   24 1
  16    8    9 ar
  17    8   28 1
  18   10   11 2
  19   10   12 1
  20   12   29 1
  21   13   14 ar
  22   13   18 ar
  23   14   15 ar
  24   14   30 1
  25   15   16 ar
  26   15   31 1
  27   16   17 ar
  28   16   19 1
  29   17   18 ar
  30   17   32 1
  31   18   33 1
  32   19   20 1
  33   19   22 1
  34   19   23 1
  35   20   21 1
  36   20   34 1
  37   20   35 1
  38   21   22 1
  39   21   36 1
  40   21   37 1
  41   22   38 1
  42   22   39 1
  43   23   40 1

#	End of record

