#	Name: ASD00860001
#	Creating user name:	WinNT
#	Creation time:	15. 06. 2019 18:53

#	Modifying user name:	WinNT
#	Modification time:	15. 06. 2019 18:53

#	Program:	/corina/corina34_cracker 3.40 0067  02.08.2006

@<TRIPOS>MOLECULE
ASD00860001
  30   31    0    0    0
SMALL
NO_CHARGES


@<TRIPOS>ATOM
   1 O1            -0.0173     1.4248     0.0099 O.3     
   2 C2             0.0021    -0.0041     0.0020 C.3     
   3 C3            -1.4333    -0.5336     0.0129 C.3     
   4 C4            -1.4374    -2.0739     0.1309 C.3     
   5 O5            -1.6648    -2.4718     1.4844 O.3     
   6 C6            -2.6134    -2.5163    -0.7684 C.3     
   7 O7            -3.6030    -3.2008     0.0023 O.3     
   8 C8            -3.1807    -1.1909    -1.3233 C.3     
   9 O9            -2.0803    -0.2585    -1.2487 O.3     
  10 N10           -3.6105    -1.3624    -2.7133 N.am    
  11 C11           -2.7011    -1.6394    -3.6657 C.2     
  12 O12           -1.5250    -1.7449    -3.3597 O.2     
  13 N13           -3.0642    -1.8007    -4.9370 N.2     
  14 C14           -4.3363    -1.6914    -5.2971 C.2     
  15 N15           -4.6996    -1.8605    -6.6131 N.pl3   
  16 C16           -5.3139    -1.4014    -4.3233 C.2     
  17 C17           -4.9297    -1.2461    -3.0341 C.2     
  18 H18            0.8606     1.8301     0.0037 H       
  19 H19            0.5123    -0.3556    -0.8948 H       
  20 H20            0.5293    -0.3651     0.8851 H       
  21 H21           -1.9950    -0.0887     0.8343 H       
  22 H22           -0.4975    -2.4875    -0.2350 H       
  23 H23           -0.9866    -2.1679     2.1030 H       
  24 H24           -2.2562    -3.1506    -1.5796 H       
  25 H25           -3.2828    -4.0099     0.4241 H       
  26 H26           -4.0120    -0.8468    -0.7079 H       
  27 H27           -4.0249    -2.0602    -7.2807 H       
  28 H28           -5.6305    -1.7800    -6.8734 H       
  29 H29           -6.3536    -1.3089    -4.6006 H       
  30 H30           -5.6604    -1.0286    -2.2692 H       
@<TRIPOS>BOND
   1    1    2 1
   2    1   18 1
   3    2    3 1
   4    2   19 1
   5    2   20 1
   6    3    4 1
   7    3    9 1
   8    3   21 1
   9    4    5 1
  10    4    6 1
  11    4   22 1
  12    5   23 1
  13    6    7 1
  14    6    8 1
  15    6   24 1
  16    7   25 1
  17    8    9 1
  18    8   10 1
  19    8   26 1
  20   10   11 am
  21   10   17 1
  22   11   12 2
  23   11   13 1
  24   13   14 2
  25   14   15 1
  26   14   16 1
  27   15   27 1
  28   15   28 1
  29   16   17 2
  30   16   29 1
  31   17   30 1

#	End of record

