#	Name: ASD01410001
#	Creating user name:	WinNT
#	Creation time:	15. 06. 2019 19:16

#	Modifying user name:	WinNT
#	Modification time:	15. 06. 2019 19:16

#	Program:	/corina/corina34_cracker 3.40 0067  02.08.2006

@<TRIPOS>MOLECULE
ASD01410001
  42   44    0    0    0
SMALL
NO_CHARGES


@<TRIPOS>ATOM
   1 C1           -10.0357    -3.3926     0.2654 C.ar    
   2 C2            -8.9707    -4.2821     0.1946 C.ar    
   3 C3            -7.6747    -3.8034     0.1222 C.ar    
   4 C4            -7.4460    -2.4214     0.1209 C.ar    
   5 C5            -8.5228    -1.5221     0.1925 C.ar    
   6 C6            -9.8156    -2.0231     0.2587 C.ar    
   7 C7            -6.2243    -1.6038     0.0564 C.2     
   8 C8            -6.7065    -0.2149     0.0975 C.2     
   9 O9            -8.0576    -0.2537     0.1767 O.3     
  10 O10           -5.0705    -1.9911    -0.0150 O.2     
  11 C11           -5.9371     0.9023     0.0624 C.2     
  12 C12           -6.5672     2.2248    -0.0355 C.ar    
  13 O13          -11.3049    -3.8686     0.3362 O.3     
  14 O14           -6.6311    -4.6676     0.0533 O.3     
  15 C15           -7.9497     2.3318    -0.2331 C.ar    
  16 C16           -8.5351     3.5742    -0.3241 C.ar    
  17 C17           -7.7568     4.7216    -0.2209 C.ar    
  18 C18           -6.3839     4.6213    -0.0252 C.ar    
  19 C19           -5.7889     3.3841     0.0740 C.ar    
  20 O20           -8.3393     5.9443    -0.3119 O.3     
  21 C21           -7.4817     7.0816    -0.1973 C.3     
  22 C22           -8.3115     8.3609    -0.3238 C.3     
  23 C23           -7.3933     9.5786    -0.2011 C.3     
  24 C24           -8.2230    10.8578    -0.3277 C.3     
  25 H25           -9.1544    -5.3464     0.1963 H       
  26 H26          -10.6533    -1.3437     0.3138 H       
  27 H27           -4.8612     0.8187     0.1064 H       
  28 H28          -11.6206    -4.0143     1.2385 H       
  29 H29           -6.3805    -4.9106    -0.8485 H       
  30 H30           -8.5551     1.4411    -0.3141 H       
  31 H31           -9.6011     3.6579    -0.4765 H       
  32 H32           -5.7840     5.5158     0.0540 H       
  33 H33           -4.7224     3.3073     0.2260 H       
  34 H34           -6.9845     7.0655     0.7726 H       
  35 H35           -6.7336     7.0539    -0.9895 H       
  36 H36           -8.8087     8.3770    -1.2937 H       
  37 H37           -9.0595     8.3886     0.4685 H       
  38 H38           -6.8961     9.5625     0.7688 H       
  39 H39           -6.6452     9.5508    -0.9934 H       
  40 H40           -8.7202    10.8739    -1.2976 H       
  41 H41           -8.9711    10.8855     0.4646 H       
  42 H42           -7.5689    11.7253    -0.2403 H       
@<TRIPOS>BOND
   1    1    2 ar
   2    1   13 1
   3    1    6 ar
   4    2    3 ar
   5    2   25 1
   6    3    4 ar
   7    3   14 1
   8    4    5 ar
   9    4    7 1
  10    5    6 ar
  11    5    9 1
  12    6   26 1
  13    7    8 1
  14    7   10 2
  15    8    9 1
  16    8   11 2
  17   11   12 1
  18   11   27 1
  19   12   15 ar
  20   12   19 ar
  21   13   28 1
  22   14   29 1
  23   15   16 ar
  24   15   30 1
  25   16   17 ar
  26   16   31 1
  27   17   18 ar
  28   17   20 1
  29   18   19 ar
  30   18   32 1
  31   19   33 1
  32   20   21 1
  33   21   22 1
  34   21   34 1
  35   21   35 1
  36   22   23 1
  37   22   36 1
  38   22   37 1
  39   23   24 1
  40   23   38 1
  41   23   39 1
  42   24   40 1
  43   24   41 1
  44   24   42 1

#	End of record

