#	Name: ASD01914264
#	Creating user name:	WinNT
#	Creation time:	15. 06. 2019 20:03

#	Modifying user name:	WinNT
#	Modification time:	15. 06. 2019 20:03

#	Program:	/corina/corina34_cracker 3.40 0067  02.08.2006

@<TRIPOS>MOLECULE
ASD01914264
  32   34    0    0    0
SMALL
NO_CHARGES


@<TRIPOS>ATOM
   1 N1            -0.0154     1.2833     0.0091 N.2     
   2 N2             0.0021    -0.0041     0.0020 N.pl3   
   3 N3             1.1958    -0.4862    -0.0120 N.2     
   4 C4             2.0613     0.5146    -0.0149 C.ar    
   5 C5             1.2309     1.7280    -0.0004 C.ar    
   6 C6             1.8655     2.9828     0.0003 C.ar    
   7 C7             3.2225     3.0467    -0.0123 C.ar    
   8 C8             4.0113     1.8960    -0.0265 C.ar    
   9 C9             3.4614     0.6524    -0.0275 C.ar    
  10 C10           -1.2068    -0.8316     0.0099 C.3     
  11 C11           -1.6423    -1.1120    -1.4298 C.3     
  12 C12           -2.8569    -1.9434    -1.4219 C.1     
  13 C13           -3.8257    -2.6066    -1.4156 C.1     
  14 N14           -6.7529    -4.6033    -2.0295 N.pl3   
  15 N15           -5.6582    -3.8480    -2.4689 N.2     
  16 C16           -5.0073    -3.4155    -1.4079 C.2     
  17 C17           -5.6804    -3.8909    -0.2636 C.2     
  18 C18           -6.7429    -4.6134    -0.6789 C.2     
  19 C19           -7.7413    -5.2628    -2.8865 C.3     
  20 Cl20           4.4789    -0.7540    -0.0442 Cl      
  21 H21            1.2784     3.8892     0.0104 H       
  22 H22            3.7033     4.0137    -0.0117 H       
  23 H23            5.0867     1.9956    -0.0370 H       
  24 H24           -0.9987    -1.7740     0.5166 H       
  25 H25           -2.0040    -0.3052     0.5347 H       
  26 H26           -1.8504    -0.1696    -1.9365 H       
  27 H27           -0.8451    -1.6383    -1.9546 H       
  28 H28           -5.3963    -3.7099     0.7625 H       
  29 H29           -7.4590    -5.1122    -0.0427 H       
  30 H30           -7.4073    -6.2751    -3.1138 H       
  31 H31           -8.7002    -5.3040    -2.3699 H       
  32 H32           -7.8519    -4.6998    -3.8133 H       
@<TRIPOS>BOND
   1    1    2 1
   2    1    5 2
   3    2    3 1
   4    2   10 1
   5    3    4 2
   6    4    5 ar
   7    4    9 ar
   8    5    6 ar
   9    6    7 ar
  10    6   21 1
  11    7    8 ar
  12    7   22 1
  13    8    9 ar
  14    8   23 1
  15    9   20 1
  16   10   11 1
  17   10   24 1
  18   10   25 1
  19   11   12 1
  20   11   26 1
  21   11   27 1
  22   12   13 3
  23   13   16 1
  24   14   15 1
  25   14   18 1
  26   14   19 1
  27   15   16 2
  28   16   17 1
  29   17   18 2
  30   17   28 1
  31   18   29 1
  32   19   30 1
  33   19   31 1
  34   19   32 1

#	End of record

