#	Name: ASD00170711
#	Creating user name:	WinNT
#	Creation time:	15. 06. 2019 18:32

#	Modifying user name:	WinNT
#	Modification time:	15. 06. 2019 18:32

#	Program:	/corina/corina34_cracker 3.40 0067  02.08.2006

@<TRIPOS>MOLECULE
ASD00170711
  33   35    0    0    0
SMALL
NO_CHARGES


@<TRIPOS>ATOM
   1 C1            -0.0144     1.2134     0.0087 C.2     
   2 O2            -0.1248     0.0036     0.0916 O.2     
   3 C3             1.3283     1.8315    -0.0462 C.ar    
   4 C4             2.4019     1.2357     0.6176 C.ar    
   5 C5             3.6515     1.8173     0.5624 C.ar    
   6 C6             3.8419     2.9890    -0.1486 C.ar    
   7 C7             2.7818     3.5849    -0.8086 C.ar    
   8 C8             1.5284     3.0100    -0.7669 C.ar    
   9 C9            -2.4917     1.5557    -0.1268 C.2     
  10 C10           -1.2102     2.0555    -0.0426 C.2     
  11 C11           -1.1732     3.4982    -0.0098 C.2     
  12 C12           -2.3898     4.0540    -0.0679 C.2     
  13 S13           -3.6334     2.8203    -0.1656 S.3     
  14 C14           -2.6498     5.5086    -0.0515 C.ar    
  15 C15           -3.9595     5.9875    -0.1166 C.ar    
  16 C16           -4.1952     7.3467    -0.1009 C.ar    
  17 C17           -3.1371     8.2346    -0.0208 C.ar    
  18 C18           -1.8365     7.7667     0.0436 C.ar    
  19 C19           -1.5871     6.4099     0.0350 C.ar    
  20 N20           -2.8069     0.2151    -0.1788 N.pl3   
  21 H21            2.2544     0.3216     1.1736 H       
  22 H22            4.4831     1.3574     1.0756 H       
  23 H23            4.8222     3.4405    -0.1884 H       
  24 H24            2.9369     4.4995    -1.3616 H       
  25 H25            0.7028     3.4736    -1.2864 H       
  26 H26           -0.2592     4.0697     0.0549 H       
  27 H27           -4.7863     5.2956    -0.1795 H       
  28 H28           -5.2079     7.7185    -0.1516 H       
  29 H29           -3.3271     9.2977    -0.0088 H       
  30 H30           -1.0151     8.4651     0.1056 H       
  31 H31           -0.5718     6.0459     0.0902 H       
  32 H32           -2.1014    -0.4502    -0.1565 H       
  33 H33           -3.7343    -0.0631    -0.2376 H       
@<TRIPOS>BOND
   1    1    2 2
   2    1    3 1
   3    1   10 1
   4    3    4 ar
   5    3    8 ar
   6    4    5 ar
   7    4   21 1
   8    5    6 ar
   9    5   22 1
  10    6    7 ar
  11    6   23 1
  12    7    8 ar
  13    7   24 1
  14    8   25 1
  15    9   10 2
  16    9   13 1
  17    9   20 1
  18   10   11 1
  19   11   12 2
  20   11   26 1
  21   12   13 1
  22   12   14 1
  23   14   15 ar
  24   14   19 ar
  25   15   16 ar
  26   15   27 1
  27   16   17 ar
  28   16   28 1
  29   17   18 ar
  30   17   29 1
  31   18   19 ar
  32   18   30 1
  33   19   31 1
  34   20   32 1
  35   20   33 1

#	End of record

