#	Name: ASD00431501
#	Creating user name:	WinNT
#	Creation time:	15. 06. 2019 18:35

#	Modifying user name:	WinNT
#	Modification time:	15. 06. 2019 18:35

#	Program:	/corina/corina34_cracker 3.40 0067  02.08.2006

@<TRIPOS>MOLECULE
ASD00431501
  39   41    0    0    0
SMALL
NO_CHARGES


@<TRIPOS>ATOM
   1 C1            -0.3829     1.6836    -0.5720 C.2     
   2 C2            -0.6026     0.2298    -0.9026 C.3     
   3 O3             0.7284     2.0805    -0.2918 O.2     
   4 N4            -1.4202     2.5438    -0.5933 N.am    
   5 C5            -1.2066     3.9570    -0.2719 C.3     
   6 C6            -0.7524     4.7027    -1.5283 C.3     
   7 O7            -3.7082     4.3931    -0.3030 O.3     
   8 N8            -4.5327     5.0092     0.3386 N.2     
   9 C9            -3.9529     5.6279     1.3385 C.2     
  10 N10           -2.6316     5.3386     1.2731 N.2     
  11 C11           -2.4938     4.5580     0.2311 C.2     
  12 S12           -3.8251     7.3078     3.6851 S.3     
  13 C13           -5.3274     7.9481     4.1904 C.2     
  14 N14           -6.2761     7.5478     3.4005 N.2     
  15 C15           -5.9342     6.7622     2.4036 C.2     
  16 C16           -4.6156     6.4800     2.3457 C.2     
  17 O17           -5.5026     8.7571     5.2621 O.3     
  18 C18           -6.7737     9.1000     5.6021 C.ar    
  19 C19           -7.5888     8.1840     6.2518 C.ar    
  20 C20           -8.8802     8.5320     6.5979 C.ar    
  21 C21           -9.3623     9.8000     6.2949 C.ar    
  22 C22           -8.5457    10.7151     5.6450 C.ar    
  23 C23           -7.2529    10.3671     5.3044 C.ar    
  24 Cl24          -9.9004     7.3861     7.4101 Cl      
  25 N25          -10.6708    10.1537     6.6446 N.pl3   
  26 H26           -0.8350    -0.3192     0.0099 H       
  27 H27           -1.4326     0.1379    -1.6032 H       
  28 H28            0.3007    -0.1808    -1.3536 H       
  29 H29           -2.3083     2.2271    -0.8213 H       
  30 H30           -0.4402     4.0427     0.4984 H       
  31 H31            0.1786     4.2681    -1.8922 H       
  32 H32           -1.5188     4.6171    -2.2986 H       
  33 H33           -0.5934     5.7542    -1.2892 H       
  34 H34           -6.6480     6.3751     1.6914 H       
  35 H35           -7.2137     7.1988     6.4866 H       
  36 H36           -8.9198    11.7004     5.4090 H       
  37 H37           -6.6163    11.0807     4.8024 H       
  38 H38          -11.2413     9.5139     7.0985 H       
  39 H39          -11.0070    11.0386     6.4331 H       
@<TRIPOS>BOND
   1    1    2 1
   2    1    3 2
   3    1    4 am
   4    2   26 1
   5    2   27 1
   6    2   28 1
   7    4    5 1
   8    4   29 1
   9    5    6 1
  10    5   11 1
  11    5   30 1
  12    6   31 1
  13    6   32 1
  14    6   33 1
  15    7    8 1
  16    7   11 1
  17    8    9 2
  18    9   10 1
  19    9   16 1
  20   10   11 2
  21   12   13 1
  22   12   16 1
  23   13   14 2
  24   13   17 1
  25   14   15 1
  26   15   16 2
  27   15   34 1
  28   17   18 1
  29   18   19 ar
  30   18   23 ar
  31   19   20 ar
  32   19   35 1
  33   20   21 ar
  34   20   24 1
  35   21   22 ar
  36   21   25 1
  37   22   23 ar
  38   22   36 1
  39   23   37 1
  40   25   38 1
  41   25   39 1

#	End of record

