#	Name: ASD08170188
#	Creating user name:	WinNT
#	Creation time:	15. 06. 2019 21:17

#	Modifying user name:	WinNT
#	Modification time:	15. 06. 2019 21:17

#	Program:	/corina/corina34_cracker 3.40 0067  02.08.2006

@<TRIPOS>MOLECULE
ASD08170188
  73   78    0    0    0
SMALL
NO_CHARGES


@<TRIPOS>ATOM
   1 N1            -0.0150     1.2583     0.0090 N.2     
   2 N2             0.0021    -0.0041     0.0020 N.2     
   3 C3             1.1271     1.8769     0.0014 C.2     
   4 S4             2.3826     0.7116    -0.0169 S.3     
   5 C5             1.1681    -0.5677    -0.0121 C.2     
   6 C6             1.4387    -2.0502    -0.0227 C.3     
   7 C7             1.5165    -2.5442    -1.4687 C.3     
   8 S8             1.8422    -4.3286    -1.4814 S.3     
   9 C9             1.8986    -4.7206    -3.2516 C.3     
  10 C10            2.1699    -6.2152    -3.4347 C.3     
  11 C11            2.2167    -6.5408    -4.9053 C.2     
  12 N12            3.2694    -6.5184    -5.6596 N.2     
  13 S13            0.8491    -7.0282    -5.9071 S.3     
  14 C14            1.9000    -7.1354    -7.2557 C.2     
  15 N15            3.1017    -6.8250    -6.8728 N.2     
  16 N16            1.5289    -7.4992    -8.5457 N.am    
  17 C17            2.4537    -7.5464    -9.5250 C.2     
  18 O18            3.6096    -7.2716    -9.2812 O.2     
  19 C19            2.0516    -7.9407   -10.9228 C.3     
  20 N20            1.3017     3.2566     0.0067 N.am    
  21 C21            0.2284     4.0717     0.0214 C.2     
  22 O22           -0.8897     3.6019     0.0299 O.2     
  23 C23            0.4176     5.5667     0.0272 C.3     
  24 C24           -0.9497     6.2603     0.0441 C.3     
  25 C25            3.2801    -7.9161   -11.8400 C.3     
  26 C26            2.8075    -8.0812   -13.2829 C.3     
  27 C27           -0.7351     7.7538    -0.1929 C.3     
  28 C28            0.3072     8.2955     0.7500 C.ar    
  29 C29            1.1914     7.4830     1.4231 C.ar    
  30 C30            1.1844     5.9834     1.2807 C.3     
  31 C31            0.3618     9.6715     0.9324 C.ar    
  32 C32            1.2965    10.2298     1.7793 C.ar    
  33 C33            2.1870     9.4140     2.4525 C.ar    
  34 C34            2.1333     8.0474     2.2740 C.ar    
  35 C35            1.4853    -9.3592   -10.9145 C.3     
  36 C36            1.2849    -9.8574   -12.3218 C.ar    
  37 C37            1.8957    -9.2736   -13.4086 C.ar    
  38 C38            0.4475   -10.9500   -12.5079 C.ar    
  39 C39            0.2266   -11.4567   -13.7716 C.ar    
  40 C40            0.8434   -10.8731   -14.8627 C.ar    
  41 C41            1.6737    -9.7868   -14.6803 C.ar    
  42 H42            2.3843    -2.2506     0.4811 H       
  43 H43            0.6334    -2.5702     0.4961 H       
  44 H44            0.5709    -2.3438    -1.9724 H       
  45 H45            2.3218    -2.0242    -1.9874 H       
  46 H46            0.9434    -4.4658    -3.7108 H       
  47 H47            2.6943    -4.1461    -3.7258 H       
  48 H48            3.1250    -6.4700    -2.9755 H       
  49 H49            1.3741    -6.7896    -2.9605 H       
  50 H50            0.6045    -7.7190    -8.7407 H       
  51 H51            1.2994    -7.2467   -11.2979 H       
  52 H52            2.1959     3.6323    -0.0001 H       
  53 H53            0.9721     5.8700    -0.8609 H       
  54 H54           -1.5793     5.8500    -0.7455 H       
  55 H55           -1.4272     6.1071     1.0119 H       
  56 H56            3.8007    -6.9647   -11.7308 H       
  57 H57            3.9507    -8.7343   -11.5774 H       
  58 H58            2.2702    -7.1840   -13.5900 H       
  59 H59            3.6729    -8.2206   -13.9308 H       
  60 H60           -0.4068     7.9111    -1.2204 H       
  61 H61           -1.6749     8.2820    -0.0317 H       
  62 H62            0.7091     5.5414     2.1564 H       
  63 H63            2.2111     5.6243     1.2100 H       
  64 H64           -0.3331    10.3094     0.4066 H       
  65 H65            1.3329    11.3005     1.9157 H       
  66 H66            2.9223     9.8454     3.1155 H       
  67 H67            2.8291     7.4108     2.8003 H       
  68 H68            2.1789   -10.0200   -10.3945 H       
  69 H69            0.5283    -9.3611   -10.3928 H       
  70 H70           -0.0343   -11.4067   -11.6560 H       
  71 H71           -0.4257   -12.3066   -13.9083 H       
  72 H72            0.6761   -11.2666   -15.8545 H       
  73 H73            2.1553    -9.3317   -15.5331 H       
@<TRIPOS>BOND
   1    1    2 1
   2    1    3 2
   3    2    5 2
   4    3    4 1
   5    3   20 1
   6    4    5 1
   7    5    6 1
   8    6    7 1
   9    6   42 1
  10    6   43 1
  11    7    8 1
  12    7   44 1
  13    7   45 1
  14    8    9 1
  15    9   10 1
  16    9   46 1
  17    9   47 1
  18   10   11 1
  19   10   48 1
  20   10   49 1
  21   11   12 2
  22   11   13 1
  23   12   15 1
  24   13   14 1
  25   14   15 2
  26   14   16 1
  27   16   17 am
  28   16   50 1
  29   17   18 2
  30   17   19 1
  31   19   25 1
  32   19   35 1
  33   19   51 1
  34   20   21 am
  35   20   52 1
  36   21   22 2
  37   21   23 1
  38   23   24 1
  39   23   30 1
  40   23   53 1
  41   24   27 1
  42   24   54 1
  43   24   55 1
  44   25   26 1
  45   25   56 1
  46   25   57 1
  47   26   37 1
  48   26   58 1
  49   26   59 1
  50   27   28 1
  51   27   60 1
  52   27   61 1
  53   28   29 ar
  54   28   31 ar
  55   29   30 1
  56   29   34 ar
  57   30   62 1
  58   30   63 1
  59   31   32 ar
  60   31   64 1
  61   32   33 ar
  62   32   65 1
  63   33   34 ar
  64   33   66 1
  65   34   67 1
  66   35   36 1
  67   35   68 1
  68   35   69 1
  69   36   37 ar
  70   36   38 ar
  71   37   41 ar
  72   38   39 ar
  73   38   70 1
  74   39   40 ar
  75   39   71 1
  76   40   41 ar
  77   40   72 1
  78   41   73 1

#	End of record

