#	Name: ASD02690022
#	Creating user name:	WinNT
#	Creation time:	15. 06. 2019 20:26

#	Modifying user name:	WinNT
#	Modification time:	15. 06. 2019 20:26

#	Program:	/corina/corina34_cracker 3.40 0067  02.08.2006

@<TRIPOS>MOLECULE
ASD02690022
  65   67    0    0    0
SMALL
NO_CHARGES


@<TRIPOS>ATOM
   1 C1             0.4958     0.2294     2.0578 C.3     
   2 N2            -0.1877     0.3347     0.7624 N.3     
   3 C3            -0.1564     1.7128     0.2560 C.3     
   4 C4             1.2954     2.1444     0.0372 C.3     
   5 C5             2.0560     2.0505     1.3628 C.3     
   6 C6             1.9671     0.6167     1.8928 C.3     
   7 C7             5.6485     3.2779     2.0539 C.ar    
   8 C8             4.3065     2.9367     2.2560 C.ar    
   9 C9             3.5009     2.4170     1.1415 C.2     
  10 C10            6.3979     3.7639     3.1025 C.ar    
  11 C11            5.8251     3.9149     4.3569 C.ar    
  12 C12            4.4953     3.5790     4.5640 C.ar    
  13 C13            3.7348     3.0919     3.5239 C.ar    
  14 C14           -1.5673    -0.1616     0.8531 C.3     
  15 C15           -2.2683     0.0268    -0.4959 C.3     
  16 N16           -3.5997    -0.5909    -0.4274 N.am    
  17 C17           -3.7067    -1.9938    -0.0041 C.3     
  18 C18           -2.9896    -2.1595     1.3394 C.3     
  19 C19           -1.5524    -1.6492     1.2124 C.3     
  20 C20           -4.7019     0.1162    -0.7463 C.2     
  21 C21           -6.0115    -0.5415    -0.7755 C.2     
  22 S22           -6.2863    -2.2550    -1.0586 S.3     
  23 O23           -0.8767    -2.3799     0.1869 O.3     
  24 O24            3.9991     2.2831     0.0440 O.2     
  25 F25            6.5658     4.3912     5.3815 F       
  26 C26           -7.2141     0.0777    -0.5813 C.2     
  27 C27           -8.2861    -0.7791    -0.6619 C.2     
  28 C28           -7.9745    -2.0564    -0.9112 C.2     
  29 C29           -8.9803    -3.1709    -1.0423 C.3     
  30 O30           -4.6098     1.3007    -1.0100 O.2     
  31 H31            0.0217     0.9003     2.7742 H       
  32 H32            0.4288    -0.7960     2.4215 H       
  33 H33           -0.6972     1.7648    -0.6890 H       
  34 H34           -0.6275     2.3768     0.9808 H       
  35 H35            1.7630     1.4893    -0.6978 H       
  36 H36            1.3189     3.1727    -0.3238 H       
  37 H37            1.6125     2.7345     2.0865 H       
  38 H38            2.4704     0.5535     2.8575 H       
  39 H39            2.4453    -0.0624     1.1870 H       
  40 H40            6.0969     3.1563     1.0789 H       
  41 H41            7.4337     4.0276     2.9479 H       
  42 H42            4.0554     3.6989     5.5430 H       
  43 H43            2.6995     2.8307     3.6864 H       
  44 H44           -2.1038     0.3936     1.6225 H       
  45 H45           -2.3696     1.0908    -0.7096 H       
  46 H46           -1.6835    -0.4518    -1.2815 H       
  47 H47           -4.7571    -2.2629     0.1067 H       
  48 H48           -3.2392    -2.6370    -0.7496 H       
  49 H49           -3.5131    -1.5859     2.1044 H       
  50 H50           -2.9783    -3.2132     1.6182 H       
  51 H51           -1.0324    -1.7887     2.1602 H       
  52 H52           -0.8282    -3.3319     0.3491 H       
  53 H53           -7.3125     1.1350    -0.3840 H       
  54 H54           -9.3052    -0.4460    -0.5319 H       
  55 H55           -9.2910    -3.2593    -2.0833 H       
  56 H56           -8.5285    -4.1081    -0.7172 H       
  57 H57           -9.8488    -2.9515    -0.4213 H       
  58 C58           13.7331    13.5026    10.5569 C.1     
  59 C59           13.7490    12.3287    10.5505 C.1     
  60 O60           13.7147    14.8574    10.5644 O.3     
  61 O61           13.7674    10.9738    10.5430 O.3     
  62 O62           15.0485    15.4731    10.5549 O.3     
  63 O63           12.4337    10.3581    10.5524 O.3     
  64 H64           15.0353    16.4400    10.5603 H       
  65 H65           12.4468     9.3912    10.5471 H       
@<TRIPOS>BOND
   1    1    2 1
   2    1    6 1
   3    1   31 1
   4    1   32 1
   5    2    3 1
   6    2   14 1
   7    3    4 1
   8    3   33 1
   9    3   34 1
  10    4    5 1
  11    4   35 1
  12    4   36 1
  13    5    6 1
  14    5    9 1
  15    5   37 1
  16    6   38 1
  17    6   39 1
  18    7    8 ar
  19    7   10 ar
  20    7   40 1
  21    8    9 1
  22    8   13 ar
  23    9   24 2
  24   10   11 ar
  25   10   41 1
  26   11   12 ar
  27   11   25 1
  28   12   13 ar
  29   12   42 1
  30   13   43 1
  31   14   15 1
  32   14   19 1
  33   14   44 1
  34   15   16 1
  35   15   45 1
  36   15   46 1
  37   16   17 1
  38   16   20 am
  39   17   18 1
  40   17   47 1
  41   17   48 1
  42   18   19 1
  43   18   49 1
  44   18   50 1
  45   19   23 1
  46   19   51 1
  47   20   21 1
  48   20   30 2
  49   21   26 2
  50   21   22 1
  51   22   28 1
  52   23   52 1
  53   26   27 1
  54   26   53 1
  55   27   28 2
  56   27   54 1
  57   28   29 1
  58   29   55 1
  59   29   56 1
  60   29   57 1
  61   58   59 3
  62   58   60 1
  63   59   61 1
  64   60   62 1
  65   61   63 1
  66   62   64 1
  67   63   65 1

#	End of record

