#	Name: ASD03081329
#	Creating user name:	WinNT
#	Creation time:	15. 06. 2019 20:27

#	Modifying user name:	WinNT
#	Modification time:	15. 06. 2019 20:27

#	Program:	/corina/corina34_cracker 3.40 0067  02.08.2006

@<TRIPOS>MOLECULE
ASD03081329
  33   35    0    0    0
SMALL
NO_CHARGES


@<TRIPOS>ATOM
   1 O1            -0.0162     1.3444     0.0094 O.3     
   2 C2             0.0021    -0.0041     0.0020 C.2     
   3 N3             1.2606    -0.3805    -0.0120 N.2     
   4 N4             2.0177     0.6597    -0.0137 N.2     
   5 C5             1.2725     1.7416    -0.0007 C.2     
   6 C6             0.8547     4.2023     0.0156 C.ar    
   7 C7             1.7573     3.1373     0.0017 C.ar    
   8 C8             3.1296     3.4143    -0.0094 C.ar    
   9 C9             3.5313     4.7386    -0.0061 C.ar    
  10 C10            2.5739     5.7366     0.0079 C.ar    
  11 N11            1.2869     5.4461     0.0182 N.ar    
  12 C12           -1.1769    -0.8946     0.0089 C.ar    
  13 C13           -1.0083    -2.2799    -0.0002 C.ar    
  14 C14           -2.1178    -3.1079     0.0069 C.ar    
  15 C15           -3.3938    -2.5602     0.0229 C.ar    
  16 C16           -3.5626    -1.1880     0.0315 C.ar    
  17 C17           -2.4637    -0.3533     0.0304 C.ar    
  18 C18           -4.5990    -3.4648     0.0305 C.3     
  19 O19           -1.9581    -4.4575    -0.0024 O.3     
  20 C20           -0.6175    -4.9520    -0.0193 C.3     
  21 H21           -0.2070     4.0044     0.0197 H       
  22 H22            3.8559     2.6151    -0.0199 H       
  23 H23            4.5816     4.9901    -0.0140 H       
  24 H24            2.8849     6.7709     0.0109 H       
  25 H25           -0.0155    -2.7047    -0.0130 H       
  26 H26           -4.5575    -0.7681     0.0436 H       
  27 H27           -2.5990     0.7182     0.0417 H       
  28 H28           -4.8790    -3.6884     1.0600 H       
  29 H29           -5.4291    -2.9685    -0.4721 H       
  30 H30           -4.3607    -4.3920    -0.4907 H       
  31 H31           -0.6323    -6.0419    -0.0253 H       
  32 H32           -0.1081    -4.5907    -0.9127 H       
  33 H33           -0.0894    -4.6007     0.8671 H       
@<TRIPOS>BOND
   1    1    2 1
   2    1    5 1
   3    2    3 2
   4    2   12 1
   5    3    4 1
   6    4    5 2
   7    5    7 1
   8    6    7 ar
   9    6   11 ar
  10    6   21 1
  11    7    8 ar
  12    8    9 ar
  13    8   22 1
  14    9   10 ar
  15    9   23 1
  16   10   11 ar
  17   10   24 1
  18   12   13 ar
  19   12   17 ar
  20   13   14 ar
  21   13   25 1
  22   14   15 ar
  23   14   19 1
  24   15   16 ar
  25   15   18 1
  26   16   17 ar
  27   16   26 1
  28   17   27 1
  29   18   28 1
  30   18   29 1
  31   18   30 1
  32   19   20 1
  33   20   31 1
  34   20   32 1
  35   20   33 1

#	End of record

