#	Name: ASD01030021
#	Creating user name:	WinNT
#	Creation time:	15. 06. 2019 18:58

#	Modifying user name:	WinNT
#	Modification time:	15. 06. 2019 18:58

#	Program:	/corina/corina34_cracker 3.40 0067  02.08.2006

@<TRIPOS>MOLECULE
ASD01030021
  35   35    0    0    0
SMALL
NO_CHARGES


@<TRIPOS>ATOM
   1 C1            -0.0184     1.5028     0.0103 C.3     
   2 C2             0.0021    -0.0041     0.0020 C.ar    
   3 C3             0.0229    -0.7016     1.1953 C.ar    
   4 C4             0.0417    -2.0838     1.1877 C.ar    
   5 C5             0.0392    -2.7685    -0.0132 C.ar    
   6 C6             0.0175    -2.0710    -1.2065 C.ar    
   7 C7            -0.0057    -0.6888    -1.1988 C.ar    
   8 P8             1.6919     2.1338    -0.0026 P.3     
   9 O9             1.6708     3.7389    -0.1261 O.3     
  10 O10            2.4305     1.7103     1.3638 O.3     
  11 O11            2.4208     1.5598    -1.1558 O.2     
  12 C12            0.0607    -4.2753    -0.0215 C.3     
  13 C13            2.8563     4.5243    -0.2666 C.3     
  14 C14            2.4797     6.0045    -0.3565 C.3     
  15 C15            3.8143     1.9664     1.6122 C.3     
  16 C16            4.1901     1.4375     2.9978 C.3     
  17 H17           -0.5455     1.8639    -0.8728 H       
  18 H18           -0.5286     1.8543     0.9071 H       
  19 H19            0.0248    -0.1667     2.1335 H       
  20 H20            0.0586    -2.6287     2.1200 H       
  21 H21            0.0159    -2.6059    -2.1447 H       
  22 H22           -0.0264    -0.1439    -2.1310 H       
  23 H23           -0.9616    -4.6533    -0.0130 H       
  24 H24            0.5705    -4.6265    -0.9187 H       
  25 H25            0.5888    -4.6360     0.8612 H       
  26 H26            3.5018     4.3655     0.5973 H       
  27 H27            3.3833     4.2277    -1.1734 H       
  28 H28            3.3840     6.6036    -0.4636 H       
  29 H29            1.8342     6.1633    -1.2204 H       
  30 H30            1.9527     6.3011     0.5503 H       
  31 H31            4.4181     1.4649     0.8559 H       
  32 H32            3.9983     3.0399     1.5709 H       
  33 H33            5.2456     1.6328     3.1873 H       
  34 H34            3.5863     1.9390     3.7542 H       
  35 H35            4.0061     0.3639     3.0392 H       
@<TRIPOS>BOND
   1    1    2 1
   2    1    8 1
   3    1   17 1
   4    1   18 1
   5    2    3 ar
   6    2    7 ar
   7    3    4 ar
   8    3   19 1
   9    4    5 ar
  10    4   20 1
  11    5    6 ar
  12    5   12 1
  13    6    7 ar
  14    6   21 1
  15    7   22 1
  16    8    9 1
  17    8   10 1
  18    8   11 2
  19    9   13 1
  20   10   15 1
  21   12   23 1
  22   12   24 1
  23   12   25 1
  24   13   14 1
  25   13   26 1
  26   13   27 1
  27   14   28 1
  28   14   29 1
  29   14   30 1
  30   15   16 1
  31   15   31 1
  32   15   32 1
  33   16   33 1
  34   16   34 1
  35   16   35 1

#	End of record

