#	Name: ASD03930068
#	Creating user name:	WinNT
#	Creation time:	15. 06. 2019 20:47

#	Modifying user name:	WinNT
#	Modification time:	15. 06. 2019 20:47

#	Program:	/corina/corina34_cracker 3.40 0067  02.08.2006

@<TRIPOS>MOLECULE
ASD03930068
  28   30    0    0    0
SMALL
NO_CHARGES


@<TRIPOS>ATOM
   1 C1            -0.0167     1.3769     0.0096 C.ar    
   2 C2             0.0021    -0.0041     0.0020 C.ar    
   3 C3             1.2040    -0.7083    -0.0021 C.ar    
   4 C4             2.3954    -0.0438     0.0004 C.ar    
   5 C5             2.3812     1.3676    -0.0153 C.ar    
   6 C6             1.1930     2.0806     0.0018 C.ar    
   7 C7             3.6978    -0.7915     0.0510 C.3     
   8 N8             4.7907    -0.0866    -0.6245 N.am    
   9 S9             5.1685     1.4694    -0.1402 S.o2    
  10 C10            3.5640     2.2430    -0.0705 C.2     
  11 S11            1.5451     3.8029     0.0060 S.3     
  12 C12            3.2768     3.5223    -0.0561 C.2     
  13 O13            5.6529     1.3877     1.1931 O.2     
  14 O14            5.8819     2.0791    -1.2073 O.2     
  15 C15            5.5398    -0.7335    -1.7046 C.3     
  16 O16           -1.1728    -0.6880    -0.0010 O.3     
  17 C17           -2.3741     0.0859     0.0040 C.3     
  18 H18           -0.9564     1.9090     0.0170 H       
  19 H19            1.1926    -1.7882    -0.0070 H       
  20 H20            3.9726    -0.9469     1.0942 H       
  21 H21            3.5624    -1.7641    -0.4222 H       
  22 H22            4.0166     4.3087    -0.0797 H       
  23 H23            5.0593    -0.5189    -2.6592 H       
  24 H24            6.5607    -0.3520    -1.7179 H       
  25 H25            5.5566    -1.8110    -1.5405 H       
  26 H26           -2.4017     0.7195    -0.8825 H       
  27 H27           -3.2361    -0.5811     0.0008 H       
  28 H28           -2.4006     0.7098     0.8974 H       
@<TRIPOS>BOND
   1    1    2 ar
   2    1    6 ar
   3    1   18 1
   4    2    3 ar
   5    2   16 1
   6    3    4 ar
   7    3   19 1
   8    4    5 ar
   9    4    7 1
  10    5    6 ar
  11    5   10 1
  12    6   11 1
  13    7    8 1
  14    7   20 1
  15    7   21 1
  16    8    9 am
  17    8   15 1
  18    9   10 1
  19    9   13 2
  20    9   14 2
  21   10   12 2
  22   11   12 1
  23   12   22 1
  24   15   23 1
  25   15   24 1
  26   15   25 1
  27   16   17 1
  28   17   26 1
  29   17   27 1
  30   17   28 1

#	End of record

