#	Name: ASD03090803
#	Creating user name:	WinNT
#	Creation time:	15. 06. 2019 20:29

#	Modifying user name:	WinNT
#	Modification time:	15. 06. 2019 20:29

#	Program:	/corina/corina34_cracker 3.40 0067  02.08.2006

@<TRIPOS>MOLECULE
ASD03090803
  42   44    0    0    0
SMALL
NO_CHARGES


@<TRIPOS>ATOM
   1 N1            -0.1198     1.0697     0.3189 N.pl3   
   2 N2            -0.0101    -0.2923    -0.0051 N.2     
   3 C3             1.1107     1.4683     0.7112 C.2     
   4 N4             1.9177     0.4293     0.6345 N.2     
   5 C5             1.2410    -0.6352     0.2016 C.2     
   6 C6            -1.3269     1.8961     0.2410 C.3     
   7 C7            -2.0665     1.8459     1.5794 C.3     
   8 C8            -3.2578     2.8052     1.5401 C.3     
   9 O9            -2.5333     0.5162     1.8161 O.3     
  10 C10           -3.9231     2.8489     2.9172 C.3     
  11 N11            1.7760    -1.9089     0.0005 N.pl3   
  12 C12            3.1497    -2.1231     0.1560 C.ar    
  13 C13            3.6660    -3.4129     0.0889 C.ar    
  14 C14            4.0013    -1.0483     0.3720 C.ar    
  15 C15            5.3578    -1.2623     0.5254 C.ar    
  16 C16            5.8691    -2.5450     0.4637 C.ar    
  17 C17            5.0252    -3.6200     0.2433 C.ar    
  18 F18            2.8418    -4.4615    -0.1263 F       
  19 C19            1.4858     2.8315     1.1492 C.ar    
  20 C20            2.8251     3.2340     1.1775 C.ar    
  21 C21            3.1310     4.5154     1.5926 C.ar    
  22 N22            2.1797     5.3544     1.9589 N.ar    
  23 C23            0.9041     5.0143     1.9468 C.ar    
  24 C24            0.5101     3.7543     1.5406 C.ar    
  25 Cl25           4.7887     5.0295     1.6337 Cl      
  26 Cl26          -0.2946     6.1682     2.4422 Cl      
  27 Cl27           5.6717    -5.2293     0.1671 Cl      
  28 H28           -1.0484     2.9261     0.0182 H       
  29 H29           -1.9767     1.5168    -0.5477 H       
  30 H30           -1.3887     2.1410     2.3804 H       
  31 H31           -2.9118     3.8034     1.2719 H       
  32 H32           -3.9786     2.4593     0.7992 H       
  33 H33           -3.1424     0.1872     1.1410 H       
  34 H34           -4.7718     3.5323     2.8891 H       
  35 H35           -4.2691     1.8507     3.1853 H       
  36 H36           -3.2024     3.1949     3.6581 H       
  37 H37            1.1953    -2.6454    -0.2470 H       
  38 H38            3.6038    -0.0452     0.4198 H       
  39 H39            6.0198    -0.4257     0.6934 H       
  40 H40            6.9299    -2.7085     0.5833 H       
  41 H41            3.6084     2.5528     0.8796 H       
  42 H42           -0.5352     3.4828     1.5332 H       
@<TRIPOS>BOND
   1    1    2 1
   2    1    3 1
   3    1    6 1
   4    2    5 2
   5    3    4 2
   6    3   19 1
   7    4    5 1
   8    5   11 1
   9    6    7 1
  10    6   28 1
  11    6   29 1
  12    7    8 1
  13    7    9 1
  14    7   30 1
  15    8   10 1
  16    8   31 1
  17    8   32 1
  18    9   33 1
  19   10   34 1
  20   10   35 1
  21   10   36 1
  22   11   12 1
  23   11   37 1
  24   12   13 ar
  25   12   14 ar
  26   13   18 1
  27   13   17 ar
  28   14   15 ar
  29   14   38 1
  30   15   16 ar
  31   15   39 1
  32   16   17 ar
  33   16   40 1
  34   17   27 1
  35   19   20 ar
  36   19   24 ar
  37   20   21 ar
  38   20   41 1
  39   21   22 ar
  40   21   25 1
  41   22   23 ar
  42   23   24 ar
  43   23   26 1
  44   24   42 1

#	End of record

