#	Name: ASD01870458
#	Creating user name:	WinNT
#	Creation time:	15. 06. 2019 19:39

#	Modifying user name:	WinNT
#	Modification time:	15. 06. 2019 19:39

#	Program:	/corina/corina34_cracker 3.40 0067  02.08.2006

@<TRIPOS>MOLECULE
ASD01870458
  54   57    0    0    0
SMALL
NO_CHARGES


@<TRIPOS>ATOM
   1 C1             0.0924     1.4040     0.2298 C.2     
   2 C2             0.0611     0.0472     0.2504 C.2     
   3 C3             1.3100    -0.6817    -0.0328 C.2     
   4 C4             2.4207     0.1247    -0.6003 C.ar    
   5 C5             2.3054     1.5209    -0.5661 C.ar    
   6 O6             1.2140     2.1015    -0.0212 O.3     
   7 C7             3.3269     2.2981    -1.0957 C.ar    
   8 C8             4.4409     1.6959    -1.6442 C.ar    
   9 C9             4.5548     0.3116    -1.6739 C.ar    
  10 C10            3.5434    -0.4782    -1.1514 C.ar    
  11 C11           -3.4249     2.0802     0.9704 C.2     
  12 N12           -3.5060     3.4457     0.9736 N.pl3   
  13 C13           -2.3695     4.1948     0.7241 C.2     
  14 C14           -1.1563     3.5272     0.4729 C.2     
  15 C15           -1.1550     2.1424     0.4870 C.2     
  16 N16           -2.3036     1.4676     0.7383 N.2     
  17 C17           -2.7238     5.5295     0.7857 C.2     
  18 C18           -4.0905     5.5772     1.0760 C.2     
  19 C19           -4.5420     4.3039     1.1851 C.2     
  20 O20            5.6589    -0.2682    -2.2157 O.3     
  21 C21            6.6621     0.6066    -2.7357 C.3     
  22 C22            7.8187    -0.2215    -3.2990 C.3     
  23 N23            7.3473    -1.0009    -4.4515 N.3     
  24 C24            8.4734    -1.6230    -5.1630 C.3     
  25 C25            7.9343    -2.4716    -6.3176 C.3     
  26 O26            7.1392    -1.6493    -7.1762 O.3     
  27 C27            6.0331    -1.0281    -6.5159 C.3     
  28 C28            6.5529    -0.1649    -5.3633 C.3     
  29 N29            1.4336    -1.9664     0.2028 N.2     
  30 O30            2.6936    -2.5952     0.0548 O.3     
  31 H31           -0.8538    -0.4835     0.4687 H       
  32 H32            3.2494     3.3752    -1.0787 H       
  33 H33            5.2315     2.3065    -2.0547 H       
  34 H34            3.6279    -1.5546    -1.1722 H       
  35 H35           -4.3126     1.4984     1.1699 H       
  36 H36           -0.2502     4.0802     0.2741 H       
  37 H37           -2.0687     6.3753     0.6380 H       
  38 H38           -4.6830     6.4725     1.1933 H       
  39 H39           -5.5597     4.0162     1.4042 H       
  40 H40            6.2339     1.2194    -3.5290 H       
  41 H41            7.0313     1.2510    -1.9379 H       
  42 H42            8.6222     0.4441    -3.6146 H       
  43 H43            8.1892    -0.8988    -2.5294 H       
  44 H44            9.1286    -0.8462    -5.5572 H       
  45 H45            9.0326    -2.2573    -4.4752 H       
  46 H46            8.7677    -2.8888    -6.8827 H       
  47 H47            7.3222    -3.2809    -5.9196 H       
  48 H48            5.4915    -0.4014    -7.2245 H       
  49 H49            5.3657    -1.7955    -6.1237 H       
  50 H50            5.7103     0.2651    -4.8219 H       
  51 H51            7.1775     0.6352    -5.7608 H       
  52 H52            2.6859    -3.5423     0.2502 H       
  53 H53           14.1286    11.4725     6.4042 H       
  54 Cl54          14.1286    12.8425     6.4042 Cl      
@<TRIPOS>BOND
   1    1    2 2
   2    1    6 1
   3    1   15 1
   4    2    3 1
   5    2   31 1
   6    3    4 1
   7    3   29 2
   8    4    5 ar
   9    4   10 ar
  10    5    6 1
  11    5    7 ar
  12    7    8 ar
  13    7   32 1
  14    8    9 ar
  15    8   33 1
  16    9   10 ar
  17    9   20 1
  18   10   34 1
  19   11   12 1
  20   11   16 2
  21   11   35 1
  22   12   13 1
  23   12   19 1
  24   13   14 1
  25   13   17 2
  26   14   15 2
  27   14   36 1
  28   15   16 1
  29   17   18 1
  30   17   37 1
  31   18   19 2
  32   18   38 1
  33   19   39 1
  34   20   21 1
  35   21   22 1
  36   21   40 1
  37   21   41 1
  38   22   23 1
  39   22   42 1
  40   22   43 1
  41   23   24 1
  42   23   28 1
  43   24   25 1
  44   24   44 1
  45   24   45 1
  46   25   26 1
  47   25   46 1
  48   25   47 1
  49   26   27 1
  50   27   28 1
  51   27   48 1
  52   27   49 1
  53   28   50 1
  54   28   51 1
  55   29   30 1
  56   30   52 1
  57   53   54 1

#	End of record

