#	Name: ASD03330176
#	Creating user name:	WinNT
#	Creation time:	15. 06. 2019 20:36

#	Modifying user name:	WinNT
#	Modification time:	15. 06. 2019 20:36

#	Program:	/corina/corina34_cracker 3.40 0067  02.08.2006

@<TRIPOS>MOLECULE
ASD03330176
  44   46    0    0    0
SMALL
NO_CHARGES


@<TRIPOS>ATOM
   1 C1            -4.2562    -6.0866     2.9618 C.ar    
   2 C2            -5.1346    -5.0983     3.3699 C.ar    
   3 C3            -5.2645    -3.9395     2.6297 C.ar    
   4 C4            -4.5123    -3.7665     1.4754 C.ar    
   5 C5            -3.6312    -4.7595     1.0683 C.ar    
   6 C6            -3.5016    -5.9143     1.8147 C.ar    
   7 Cl7           -4.0953    -7.5419     3.8944 Cl      
   8 N8            -4.6424    -2.5931     0.7231 N.am    
   9 C9            -5.8330    -1.9652     0.6543 C.2     
  10 N10           -5.9344    -0.7804     0.0199 N.am    
  11 O11           -6.8156    -2.4676     1.1647 O.2     
  12 C12           -7.1879    -0.1805    -0.1460 C.ar    
  13 C13           -8.3149    -0.9676    -0.3259 C.ar    
  14 C14           -9.5602    -0.3661    -0.4907 C.ar    
  15 C15           -9.6664     1.0235    -0.4738 C.ar    
  16 C16           -8.5391     1.8003    -0.2942 C.ar    
  17 C17           -7.3040     1.2041    -0.1249 C.ar    
  18 C18          -10.7703    -1.2022    -0.6841 C.ar    
  19 N19          -10.6599    -2.5248    -0.6992 N.ar    
  20 C20          -12.0114    -0.5924    -0.8422 C.ar    
  21 C21          -13.1356    -1.3829    -1.0223 C.ar    
  22 C22          -12.9823    -2.7590    -1.0384 C.ar    
  23 C23          -11.7141    -3.3048    -0.8689 C.ar    
  24 N24          -11.5519    -4.6892    -0.8839 N.am    
  25 C25          -10.3476    -5.2296    -0.6117 C.2     
  26 C26          -10.1976    -6.7260    -0.5149 C.3     
  27 O27           -9.3845    -4.5117    -0.4447 O.2     
  28 H28           -5.7194    -5.2334     4.2678 H       
  29 H29           -5.9507    -3.1688     2.9483 H       
  30 H30           -3.0454    -4.6275     0.1707 H       
  31 H31           -2.8162    -6.6869     1.4987 H       
  32 H32           -3.8757    -2.2319     0.2513 H       
  33 H33           -5.1386    -0.3436    -0.3217 H       
  34 H34           -8.2274    -2.0440    -0.3385 H       
  35 H35          -10.6306     1.4928    -0.6017 H       
  36 H36           -8.6234     2.8769    -0.2818 H       
  37 H37           -6.4253     1.8161     0.0153 H       
  38 H38          -12.0975     0.4840    -0.8246 H       
  39 H39          -14.1105    -0.9351    -1.1470 H       
  40 H40          -13.8391    -3.4019    -1.1763 H       
  41 H41          -12.3058    -5.2637    -1.0902 H       
  42 H42          -11.1628    -7.2002    -0.6931 H       
  43 H43           -9.4812    -7.0685    -1.2616 H       
  44 H44           -9.8405    -6.9918     0.4801 H       
@<TRIPOS>BOND
   1    1    2 ar
   2    1    7 1
   3    1    6 ar
   4    2    3 ar
   5    2   28 1
   6    3    4 ar
   7    3   29 1
   8    4    5 ar
   9    4    8 1
  10    5    6 ar
  11    5   30 1
  12    6   31 1
  13    8    9 am
  14    8   32 1
  15    9   10 am
  16    9   11 2
  17   10   12 1
  18   10   33 1
  19   12   13 ar
  20   12   17 ar
  21   13   14 ar
  22   13   34 1
  23   14   15 ar
  24   14   18 1
  25   15   16 ar
  26   15   35 1
  27   16   17 ar
  28   16   36 1
  29   17   37 1
  30   18   19 ar
  31   18   20 ar
  32   19   23 ar
  33   20   21 ar
  34   20   38 1
  35   21   22 ar
  36   21   39 1
  37   22   23 ar
  38   22   40 1
  39   23   24 1
  40   24   25 am
  41   24   41 1
  42   25   26 1
  43   25   27 2
  44   26   42 1
  45   26   43 1
  46   26   44 1

#	End of record

