#	Name: ASD08830049
#	Creating user name:	WinNT
#	Creation time:	15. 06. 2019 21:19

#	Modifying user name:	WinNT
#	Modification time:	15. 06. 2019 21:19

#	Program:	/corina/corina34_cracker 3.40 0067  02.08.2006

@<TRIPOS>MOLECULE
ASD08830049
  45   48    0    0    0
SMALL
NO_CHARGES


@<TRIPOS>ATOM
   1 C1            -0.0172     1.4144     0.0098 C.ar    
   2 C2             0.0021    -0.0041     0.0020 C.ar    
   3 C3             1.1959     2.1287     0.0021 C.ar    
   4 C4             2.3769     1.4621    -0.0133 C.ar    
   5 C5             2.4108     0.0535    -0.0217 C.ar    
   6 C6             1.2315    -0.6786    -0.0139 C.ar    
   7 C7             3.7045    -0.6459    -0.0393 C.2     
   8 C8             4.9879     0.1439    -0.0483 C.3     
   9 C9             6.1781    -0.8173    -0.0663 C.3     
  10 N10            7.4292    -0.0475    -0.0751 N.3     
  11 O11            3.7384    -1.8581    -0.0465 O.2     
  12 C12            8.5898    -0.9248     0.1463 C.3     
  13 C13           -1.2511     2.0843     0.0194 C.ar    
  14 C14           -1.2141    -0.7105     0.0099 C.ar    
  15 C15           -2.3907    -0.0259     0.0249 C.ar    
  16 C16           -2.4091     1.3672     0.0210 C.ar    
  17 C17            9.8570    -0.1582    -0.2338 C.3     
  18 C18            9.8661     1.1885     0.4429 C.ar    
  19 C19            8.7214     1.7351     0.9820 C.ar    
  20 C20            7.3983     1.0170     0.9329 C.3     
  21 C21           11.0638     1.8837     0.5165 C.ar    
  22 C22           11.1156     3.1212     1.1256 C.ar    
  23 C23            9.9672     3.6711     1.6645 C.ar    
  24 C24            8.7747     2.9801     1.5918 C.ar    
  25 H25            1.1860     3.2087     0.0080 H       
  26 H26            3.3029     2.0179    -0.0195 H       
  27 H27            1.2604    -1.7581    -0.0203 H       
  28 H28            5.0187     0.7770    -0.9350 H       
  29 H29            5.0375     0.7668     0.8448 H       
  30 H30            6.1473    -1.4504     0.8205 H       
  31 H31            6.1285    -1.4403    -0.9594 H       
  32 H32            8.6368    -1.2120     1.1967 H       
  33 H33            8.4999    -1.8151    -0.4761 H       
  34 H34           -1.2819     3.1638     0.0257 H       
  35 H35           -1.2146    -1.7904     0.0038 H       
  36 H36           -3.3233    -0.5705     0.0306 H       
  37 H37           -3.3559     1.8865     0.0335 H       
  38 H38           10.7320    -0.7271     0.0805 H       
  39 H39            9.8860    -0.0203    -1.3146 H       
  40 H40            6.6114     1.7282     0.6817 H       
  41 H41            7.1880     0.5821     1.9100 H       
  42 H42           11.9609     1.4543     0.0953 H       
  43 H43           12.0508     3.6585     1.1814 H       
  44 H44           10.0032     4.6395     2.1413 H       
  45 H45            7.8782     3.4105     2.0129 H       
@<TRIPOS>BOND
   1    1    2 ar
   2    1    3 ar
   3    1   13 ar
   4    2   14 ar
   5    2    6 ar
   6    3    4 ar
   7    3   25 1
   8    4    5 ar
   9    4   26 1
  10    5    6 ar
  11    5    7 1
  12    6   27 1
  13    7    8 1
  14    7   11 2
  15    8    9 1
  16    8   28 1
  17    8   29 1
  18    9   10 1
  19    9   30 1
  20    9   31 1
  21   10   12 1
  22   10   20 1
  23   12   17 1
  24   12   32 1
  25   12   33 1
  26   13   16 ar
  27   13   34 1
  28   14   15 ar
  29   14   35 1
  30   15   16 ar
  31   15   36 1
  32   16   37 1
  33   17   18 1
  34   17   38 1
  35   17   39 1
  36   18   19 ar
  37   18   21 ar
  38   19   20 1
  39   19   24 ar
  40   20   40 1
  41   20   41 1
  42   21   22 ar
  43   21   42 1
  44   22   23 ar
  45   22   43 1
  46   23   24 ar
  47   23   44 1
  48   24   45 1

#	End of record

