#	Name: ASD01670050
#	Creating user name:	WinNT
#	Creation time:	15. 06. 2019 19:22

#	Modifying user name:	WinNT
#	Modification time:	15. 06. 2019 19:22

#	Program:	/corina/corina34_cracker 3.40 0067  02.08.2006

@<TRIPOS>MOLECULE
ASD01670050
  65   68    0    0    0
SMALL
NO_CHARGES


@<TRIPOS>ATOM
   1 C1             0.0965     1.2939    -0.4173 C.ar    
   2 C2             0.6519     1.1477     0.8412 C.ar    
   3 C3             0.9338     0.0332    -7.9827 C.2     
   4 C4             0.7416     0.7797    -1.5234 C.ar    
   5 C5             1.8569     0.4861     0.9999 C.ar    
   6 C6             6.6488    -0.9616     3.7861 C.ar    
   7 C7             6.8898    -0.9665     5.1496 C.ar    
   8 C8             1.8947     0.2890    -6.9777 C.2     
   9 C9             0.3987    -1.1710    -7.7129 C.2     
  10 C10            1.9569     0.1110    -1.3703 C.ar    
  11 C11            4.6936    -2.3173     4.1237 C.ar    
  12 C12            2.5121    -0.0326    -0.0975 C.ar    
  13 C13            5.5609    -1.6304     3.2693 C.ar    
  14 C14            6.0404    -1.6447     6.0101 C.ar    
  15 C15            4.9373    -2.3214     5.5042 C.ar    
  16 C16            1.8893    -0.7742    -6.1537 C.2     
  17 C17            2.6534    -0.4428    -2.5509 C.2     
  18 C18            3.5277    -3.0337     3.5756 C.2     
  19 C19            6.8447    -1.2899    11.6065 C.2     
  20 C20            4.5697    -3.2824     7.6453 C.3     
  21 C21            5.2265    -2.0176     8.2132 C.3     
  22 C22            3.8246    -0.7523     0.0770 C.3     
  23 C23            5.3057    -1.6211     1.7841 C.3     
  24 C24            2.7553    -0.9473    -4.9326 C.3     
  25 C25            4.7436     0.7338     1.7532 C.3     
  26 C26            6.3105    -1.0089    10.2256 C.3     
  27 C27            5.7688    -2.3030     9.6151 C.3     
  28 N28            2.0651    -0.3985    -3.7627 N.am    
  29 N29            4.2696    -0.6278     1.4714 N.3     
  30 O30            3.6310    -4.1980     3.2437 O.2     
  31 O31            6.7970    -2.4104    12.0562 O.2     
  32 O32            3.7567    -0.9382    -2.4287 O.2     
  33 O33            2.3474    -2.3974     3.4427 O.3     
  34 O34            7.3734    -0.2955    12.3368 O.3     
  35 O35            0.9812    -1.6554    -6.6039 O.3     
  36 O36            4.0881    -2.9857     6.3300 O.3     
  37 O37            6.3022    -1.6422     7.3461 O.3     
  38 H38           -0.8463     1.8077    -0.5339 H       
  39 H39            0.1429     1.5520     1.7037 H       
  40 H40            0.6757     0.6823    -8.8064 H       
  41 H41            0.3068     0.8942    -2.5053 H       
  42 H42            2.2855     0.3760     1.9850 H       
  43 H43            7.3146    -0.4271     3.1248 H       
  44 H44            7.7451    -0.4390     5.5452 H       
  45 H45            2.5145     1.1690    -6.8887 H       
  46 H46           -0.3694    -1.6644    -8.2899 H       
  47 H47            5.3037    -4.0866     7.5944 H       
  48 H48            3.7381    -3.5827     8.2826 H       
  49 H49            4.4937    -1.2121     8.2596 H       
  50 H50            3.6969    -1.8060    -0.1709 H       
  51 H51            4.5713    -0.3115    -0.5834 H       
  52 H52            6.2257    -1.3641     1.2590 H       
  53 H53            4.9700    -2.6084     1.4669 H       
  54 H54            2.9521    -2.0077    -4.7740 H       
  55 H55            3.6984    -0.4206    -5.0783 H       
  56 H56            3.9142     1.4345     1.6569 H       
  57 H57            5.1405     0.7778     2.7674 H       
  58 H58            5.5278     0.9995     1.0443 H       
  59 H59            5.5085    -0.2735    10.2890 H       
  60 H60            7.1122    -0.6190     9.5983 H       
  61 H61            4.9672    -2.6929    10.2424 H       
  62 H62            6.5709    -3.0384     9.5517 H       
  63 H63            1.1847    -0.0032    -3.8602 H       
  64 H64            1.6117    -2.9085     3.0785 H       
  65 H65            7.7030    -0.5244    13.2166 H       
@<TRIPOS>BOND
   1    1    2 ar
   2    1    4 ar
   3    1   38 1
   4    2    5 ar
   5    2   39 1
   6    3    8 1
   7    3    9 2
   8    3   40 1
   9    4   10 ar
  10    4   41 1
  11    5   12 ar
  12    5   42 1
  13    6    7 ar
  14    6   13 ar
  15    6   43 1
  16    7   14 ar
  17    7   44 1
  18    8   16 2
  19    8   45 1
  20    9   35 1
  21    9   46 1
  22   10   12 ar
  23   10   17 1
  24   11   13 ar
  25   11   15 ar
  26   11   18 1
  27   12   22 1
  28   13   23 1
  29   14   15 ar
  30   14   37 1
  31   15   36 1
  32   16   24 1
  33   16   35 1
  34   17   28 am
  35   17   32 2
  36   18   30 2
  37   18   33 1
  38   19   26 1
  39   19   31 2
  40   19   34 1
  41   20   21 1
  42   20   36 1
  43   20   47 1
  44   20   48 1
  45   21   27 1
  46   21   37 1
  47   21   49 1
  48   22   29 1
  49   22   50 1
  50   22   51 1
  51   23   29 1
  52   23   52 1
  53   23   53 1
  54   24   28 1
  55   24   54 1
  56   24   55 1
  57   25   29 1
  58   25   56 1
  59   25   57 1
  60   25   58 1
  61   26   27 1
  62   26   59 1
  63   26   60 1
  64   27   61 1
  65   27   62 1
  66   28   63 1
  67   33   64 1
  68   34   65 1

#	End of record

