#	Name: ASD03091551
#	Creating user name:	WinNT
#	Creation time:	15. 06. 2019 20:30

#	Modifying user name:	WinNT
#	Modification time:	15. 06. 2019 20:30

#	Program:	/corina/corina34_cracker 3.40 0067  02.08.2006

@<TRIPOS>MOLECULE
ASD03091551
  42   43    0    0    0
SMALL
NO_CHARGES


@<TRIPOS>ATOM
   1 C1            -0.0165     1.3670     0.0096 C.ar    
   2 C2             0.0021    -0.0041     0.0020 C.ar    
   3 C3             1.2144    -0.6855    -0.0128 C.ar    
   4 C4             2.4136     0.0190    -0.0204 C.ar    
   5 C5             2.4060     1.3902    -0.0130 C.ar    
   6 C6             1.1881     2.0811     0.0019 C.ar    
   7 C7             1.1741     3.5496     0.0094 C.2     
   8 O8             0.1179     4.1460     0.0223 O.2     
   9 C9             2.4719     4.3156     0.0011 C.3     
  10 C10            2.1780     5.8171     0.0115 C.3     
  11 C11            3.4758     6.5830     0.0032 C.ar    
  12 C12            4.1120     6.8562    -1.1997 C.ar    
  13 C13            4.0283     7.0176     1.1925 C.ar    
  14 C14            5.2178     7.7211     1.1881 C.ar    
  15 C15            5.8602     7.9925    -0.0114 C.ar    
  16 C16            5.3055     7.5612    -1.2067 C.ar    
  17 O17            3.5656     6.4325    -2.3696 O.3     
  18 C18            4.2748     6.7492    -3.5691 C.3     
  19 O19            7.0297     8.6847    -0.0151 O.3     
  20 C20            7.5404     9.1023     1.2525 C.3     
  21 O21            1.2274    -2.0420    -0.0193 O.3     
  22 C22            2.5067    -2.6785    -0.0345 C.3     
  23 H23           -0.9585     1.8952     0.0169 H       
  24 H24           -0.9263    -0.5558     0.0079 H       
  25 H25            3.3523    -0.5148    -0.0319 H       
  26 H26            3.3378     1.9363    -0.0182 H       
  27 H27            3.0542     4.0533     0.8844 H       
  28 H28            3.0376     4.0622    -0.8955 H       
  29 H29            1.5956     6.0794    -0.8718 H       
  30 H30            1.6123     6.0704     0.9081 H       
  31 H31            3.5296     6.8076     2.1272 H       
  32 H32            5.6476     8.0601     2.1191 H       
  33 H33            5.8022     7.7744    -2.1416 H       
  34 H34            4.3650     7.8314    -3.6630 H       
  35 H35            5.2689     6.3036    -3.5318 H       
  36 H36            3.7315     6.3541    -4.4275 H       
  37 H37            6.8155     9.7547     1.7393 H       
  38 H38            7.7197     8.2278     1.8780 H       
  39 H39            8.4757     9.6429     1.1072 H       
  40 H40            3.0524    -2.3761    -0.9283 H       
  41 H41            3.0693    -2.3845     0.8516 H       
  42 H42            2.3742    -3.7604    -0.0383 H       
@<TRIPOS>BOND
   1    1    2 ar
   2    1    6 ar
   3    1   23 1
   4    2    3 ar
   5    2   24 1
   6    3    4 ar
   7    3   21 1
   8    4    5 ar
   9    4   25 1
  10    5    6 ar
  11    5   26 1
  12    6    7 1
  13    7    8 2
  14    7    9 1
  15    9   10 1
  16    9   27 1
  17    9   28 1
  18   10   11 1
  19   10   29 1
  20   10   30 1
  21   11   13 ar
  22   11   12 ar
  23   12   16 ar
  24   12   17 1
  25   13   14 ar
  26   13   31 1
  27   14   15 ar
  28   14   32 1
  29   15   16 ar
  30   15   19 1
  31   16   33 1
  32   17   18 1
  33   18   34 1
  34   18   35 1
  35   18   36 1
  36   19   20 1
  37   20   37 1
  38   20   38 1
  39   20   39 1
  40   21   22 1
  41   22   40 1
  42   22   41 1
  43   22   42 1

#	End of record

