#	Name: ASD01231365
#	Creating user name:	WinNT
#	Creation time:	15. 06. 2019 19:15

#	Modifying user name:	WinNT
#	Modification time:	15. 06. 2019 19:15

#	Program:	/corina/corina34_cracker 3.40 0067  02.08.2006

@<TRIPOS>MOLECULE
ASD01231365
  57   60    0    0    0
SMALL
NO_CHARGES


@<TRIPOS>ATOM
   1 N1             0.3655    -0.0957    -0.4428 N.pl3   
   2 N2             0.2976     1.1184     0.2526 N.2     
   3 C3             1.5176     1.4930     0.5412 C.2     
   4 C4             2.4002     0.5309     0.0396 C.2     
   5 C5             1.6663    -0.4348    -0.5605 C.2     
   6 S6             4.1572     0.5697     0.1661 S.o2    
   7 O7             4.6310    -0.6139    -0.4616 O.2     
   8 O8             4.5593     1.8738    -0.2299 O.2     
   9 N9             4.5362     0.4310     1.7722 N.am    
  10 C10            1.9049     2.7451     1.2851 C.3     
  11 F11            0.7507     3.4458     1.6512 F       
  12 F12            2.6256     2.4009     2.4337 F       
  13 F13            2.6979     3.5507     0.4609 F       
  14 C14           -0.7747    -0.8647    -0.9475 C.3     
  15 C15            4.2383    -0.8105     2.4906 C.3     
  16 C16            5.3719    -1.1391     3.4851 C.3     
  17 C17            4.8728    -0.4767     4.7868 C.3     
  18 C18            3.3645    -0.4475     4.6633 C.ar    
  19 C19            2.3882    -0.2674     5.6291 C.ar    
  20 C20            1.0527    -0.2788     5.2778 C.ar    
  21 C21            0.6880    -0.4707     3.9581 C.ar    
  22 C22            1.6600    -0.6505     2.9937 C.ar    
  23 C23            2.9999    -0.6393     3.3440 C.ar    
  24 C24           -0.0062    -0.0829     6.3321 C.3     
  25 C25           -0.3144     1.3860     6.4677 C.ar    
  26 C26           -1.3069     1.9583     5.6938 C.ar    
  27 C27           -1.5895     3.3055     5.8181 C.ar    
  28 C28           -0.8800     4.0807     6.7166 C.ar    
  29 C29            0.1116     3.5084     7.4908 C.ar    
  30 C30            0.3913     2.1598     7.3696 C.ar    
  31 C31            0.8852     4.3534     8.4697 C.3     
  32 F32            0.4229     5.6727     8.4142 F       
  33 F33            0.7064     3.8506     9.7630 F       
  34 F34            2.2447     4.3215     8.1409 F       
  35 C35           -2.6707     3.9296     4.9739 C.3     
  36 O36           -3.9198     3.8483     5.6633 O.3     
  37 H37            2.0526    -1.3185    -1.0466 H       
  38 H38            4.9554     1.1718     2.2373 H       
  39 H39           -1.0089    -0.5435    -1.9625 H       
  40 H40           -0.5246    -1.9256    -0.9508 H       
  41 H41           -1.6390    -0.6972    -0.3049 H       
  42 H42            4.1034    -1.6313     1.7861 H       
  43 H43            5.4747    -2.2166     3.6133 H       
  44 H44            6.3129    -0.6949     3.1605 H       
  45 H45            5.1701    -1.0703     5.6513 H       
  46 H46            5.2652     0.5368     4.8700 H       
  47 H47            2.6723    -0.1178     6.6603 H       
  48 H48           -0.3560    -0.4803     3.6818 H       
  49 H49            1.3743    -0.8003     1.9630 H       
  50 H50           -0.9103    -0.6187     6.0430 H       
  51 H51            0.3550    -0.4679     7.2858 H       
  52 H52           -1.8611     1.3528     4.9920 H       
  53 H53           -1.1004     5.1336     6.8131 H       
  54 H54            1.1636     1.7118     7.9772 H       
  55 H55           -2.4268     4.9752     4.7860 H       
  56 H56           -2.7438     3.3974     4.0255 H       
  57 H57           -4.6628     4.2317     5.1775 H       
@<TRIPOS>BOND
   1    1    2 1
   2    1    5 1
   3    1   14 1
   4    2    3 2
   5    3    4 1
   6    3   10 1
   7    4    5 2
   8    4    6 1
   9    5   37 1
  10    6    7 2
  11    6    8 2
  12    6    9 am
  13    9   15 1
  14    9   38 1
  15   10   11 1
  16   10   12 1
  17   10   13 1
  18   14   39 1
  19   14   40 1
  20   14   41 1
  21   15   16 1
  22   15   23 1
  23   15   42 1
  24   16   17 1
  25   16   43 1
  26   16   44 1
  27   17   18 1
  28   17   45 1
  29   17   46 1
  30   18   19 ar
  31   18   23 ar
  32   19   20 ar
  33   19   47 1
  34   20   21 ar
  35   20   24 1
  36   21   22 ar
  37   21   48 1
  38   22   23 ar
  39   22   49 1
  40   24   25 1
  41   24   50 1
  42   24   51 1
  43   25   26 ar
  44   25   30 ar
  45   26   27 ar
  46   26   52 1
  47   27   28 ar
  48   27   35 1
  49   28   29 ar
  50   28   53 1
  51   29   30 ar
  52   29   31 1
  53   30   54 1
  54   31   32 1
  55   31   33 1
  56   31   34 1
  57   35   36 1
  58   35   55 1
  59   35   56 1
  60   36   57 1

#	End of record

