#	Name: ASD06600069
#	Creating user name:	WinNT
#	Creation time:	15. 06. 2019 21:07

#	Modifying user name:	WinNT
#	Modification time:	15. 06. 2019 21:07

#	Program:	/corina/corina34_cracker 3.40 0067  02.08.2006

@<TRIPOS>MOLECULE
ASD06600069
 330  330    0    0    0
SMALL
NO_CHARGES


@<TRIPOS>ATOM
   1 C1           -10.1950    -4.6864   -35.2535 C.2     
   2 O2           -10.2052    -5.5050   -34.3587 O.2     
   3 N3            -8.5375    -6.0896   -36.3438 N.3     
   4 C4            -9.4997    -4.9995   -36.5533 C.3     
   5 C5           -10.5352    -5.4266   -37.5956 C.3     
   6 C6            -9.8466    -5.6241   -38.9475 C.3     
   7 C7           -10.8821    -6.0512   -39.9897 C.3     
   8 N8           -10.2227    -6.2402   -41.2842 N.pl3   
   9 C9           -10.9573    -6.6270   -42.3796 C.2     
  10 N10          -12.2170    -6.9270   -42.2457 N.2     
  11 N11          -10.3588    -6.6976   -43.6228 N.am    
  12 C12          -12.5663    -2.1690   -34.0690 C.2     
  13 O13          -12.7459    -1.7319   -35.1859 O.2     
  14 N14          -10.8102    -3.4988   -35.0873 N.am    
  15 C15          -11.4912    -3.1968   -33.8259 C.3     
  16 C16          -10.4790    -2.6475   -32.8186 C.3     
  17 C17           -9.4580    -3.7346   -32.4772 C.3     
  18 C18           -8.4610    -3.1936   -31.4850 C.2     
  19 O19           -8.5576    -2.0511   -31.0899 O.2     
  20 N20           -7.4620    -3.9795   -31.0368 N.am    
  21 C21          -14.6466     0.0160   -32.0048 C.2     
  22 O22          -14.0292    -0.2554   -30.9968 O.2     
  23 N23          -13.3281    -1.7357   -33.0451 N.am    
  24 C24          -14.3732    -0.7366   -33.2815 C.3     
  25 C25          -15.6525    -1.4365   -33.7448 C.3     
  26 C26          -17.2450     2.2738   -30.7744 C.2     
  27 O27          -17.9526     2.0752   -31.7392 O.2     
  28 N28          -15.5771     0.9908   -31.9832 N.am    
  29 C29          -15.8428     1.7224   -30.7421 C.3     
  30 C30          -14.8449     2.8741   -30.6054 C.3     
  31 C31          -13.4321     2.3087   -30.4473 C.3     
  32 C32          -12.4492     3.4430   -30.3127 C.2     
  33 O33          -12.8402     4.5907   -30.3404 O.2     
  34 N34          -11.1356     3.1821   -30.1614 N.am    
  35 C35          -19.1629     4.7275   -28.8603 C.2     
  36 O36          -18.1830     5.1010   -28.2509 O.2     
  37 N37          -17.7125     2.9877   -29.7312 N.am    
  38 C38          -19.0756     3.5237   -29.7627 C.3     
  39 C39          -20.0560     2.4527   -29.2804 C.3     
  40 C40          -20.0585     1.2826   -30.2661 C.3     
  41 C41          -21.0389     0.2115   -29.7839 C.3     
  42 N42          -21.0413    -0.9089   -30.7277 N.pl3   
  43 C43          -21.8509    -1.9967   -30.5014 C.2     
  44 N44          -21.8530    -2.9936   -31.3411 N.2     
  45 N45          -22.6584    -2.0330   -29.3893 N.pl3   
  46 C46          -21.8386     6.7412   -27.3944 C.2     
  47 O47          -22.7480     6.2535   -28.0318 O.2     
  48 N48          -20.3299     5.3892   -28.7304 N.am    
  49 C49          -20.4147     6.5594   -27.8532 C.3     
  50 C50          -19.9627     7.8046   -28.6188 C.3     
  51 C51          -18.4764     7.6817   -28.9605 C.3     
  52 C52          -18.0244     8.9268   -29.7261 C.3     
  53 N53          -16.6013     8.8091   -30.0532 N.pl3   
  54 C54          -15.9693     9.8154   -30.7447 C.2     
  55 N55          -14.7031     9.7107   -31.0357 N.2     
  56 N56          -16.6730    10.9322   -31.1292 N.pl3   
  57 C57          -24.1831     8.5988   -26.8021 C.2     
  58 O58          -23.6522     8.8715   -27.8579 O.2     
  59 N59          -22.1016     7.4456   -26.2759 N.am    
  60 C60          -23.4403     7.7865   -25.7728 C.3     
  61 C61          -23.2486     8.6177   -24.4868 C.3     
  62 C62          -21.8108     9.1786   -24.6467 C.3     
  63 C63          -21.0945     7.9964   -25.3508 C.3     
  64 C64          -27.2055    10.6541   -26.8660 C.2     
  65 O65          -27.3351    10.5999   -25.6614 O.2     
  66 N66          -25.4374     9.0223   -26.5494 N.am    
  67 C67          -26.1595     9.8120   -27.5500 C.3     
  68 C68          -26.8354     8.8724   -28.5505 C.3     
  69 C69          -25.7667     8.1068   -29.3333 C.3     
  70 C70          -26.4324     7.1813   -30.3188 C.2     
  71 O71          -27.6425     7.1382   -30.3883 O.2     
  72 N72          -25.6831     6.4014   -31.1230 N.am    
  73 C73          -30.1186    12.6041   -27.9025 C.2     
  74 O74          -30.0621    12.1880   -29.0403 O.2     
  75 N75          -27.9970    11.4674   -27.5930 N.am    
  76 C76          -29.0139    12.2860   -26.9281 C.3     
  77 C77          -28.3784    13.5874   -26.4349 C.3     
  78 C78          -27.3427    13.2716   -25.3539 C.3     
  79 C79          -26.7073    14.5731   -24.8607 C.3     
  80 N80          -25.7156    14.2707   -23.8256 N.pl3   
  81 C81          -25.0107    15.2900   -23.2303 C.2     
  82 N82          -24.1284    15.0209   -22.3094 N.2     
  83 N83          -25.2365    16.5930   -23.6062 N.pl3   
  84 C84          -32.9348    14.9311   -28.0348 C.2     
  85 O85          -32.5667    15.5204   -27.0408 O.2     
  86 N86          -31.1694    13.3510   -27.5095 N.am    
  87 C87          -32.2434    13.6602   -28.4567 C.3     
  88 C88          -33.2539    12.5116   -28.4748 C.3     
  89 C89          -32.5826    11.2502   -29.0217 C.3     
  90 C90          -33.5780    10.1189   -29.0394 C.2     
  91 O91          -34.7126    10.3033   -28.6527 O.2     
  92 N92          -33.2073     8.9021   -29.4851 N.am    
  93 C93          -36.0420    16.6565   -28.8899 C.2     
  94 O94          -36.4442    15.7224   -29.5508 O.2     
  95 N95          -33.9621    15.4127   -28.7622 N.am    
  96 C96          -34.6343    16.6481   -28.3520 C.3     
  97 C97          -33.8698    17.8524   -28.9052 C.3     
  98 C98          -32.4823    17.9143   -28.2634 C.3     
  99 C99          -31.7178    19.1187   -28.8166 C.3     
 100 C100         -30.3303    19.1806   -28.1748 C.3     
 101 N101         -29.5962    20.3369   -28.7059 N.3     
 102 C102         -38.7004    19.1329   -29.2939 C.2     
 103 O103         -37.9698    20.0499   -28.9836 O.2     
 104 N104         -36.8540    17.7019   -28.6365 N.am    
 105 C105         -38.2225    17.7100   -29.1594 C.3     
 106 C106         -39.1404    16.9525   -28.1979 C.3     
 107 C107         -41.9093    20.8026   -29.8210 C.2     
 108 O108         -42.5395    19.7664   -29.8266 O.2     
 109 N109         -39.9397    19.3864   -29.7591 N.am    
 110 C110         -40.4043    20.7696   -29.8899 C.3     
 111 C111         -39.9427    21.3378   -31.2334 C.3     
 112 C112         -38.4177    21.4620   -31.2377 C.3     
 113 C113         -40.3813    20.4013   -32.3610 C.3     
 114 C114         -44.4724    23.3626   -30.3113 C.2     
 115 O115         -43.6534    24.2038   -30.6153 O.2     
 116 N116         -42.5551    21.9837   -29.7531 N.am    
 117 C117         -44.0190    22.0216   -29.7944 C.3     
 118 C118         -44.5747    21.8036   -28.3856 C.3     
 119 C119         -44.2195    20.3934   -27.9099 C.3     
 120 C120         -44.7752    20.1754   -26.5011 C.3     
 121 N121         -44.4352    18.8252   -26.0456 N.pl3   
 122 C122         -44.8320    18.3997   -24.7999 C.2     
 123 N123         -45.5108    19.1975   -24.0243 N.2     
 124 N124         -44.5128    17.1326   -24.3724 N.pl3   
 125 C125         -47.6182    25.2207   -30.4314 C.2     
 126 O126         -48.2720    24.3390   -29.9156 O.2     
 127 N127         -45.7881    23.6270   -30.4357 N.am    
 128 C128         -46.2289    24.9306   -30.9382 C.3     
 129 C129         -46.2378    24.9111   -32.4681 C.3     
 130 C130         -44.8059    24.7566   -32.9845 C.3     
 131 C131         -47.0862    23.7359   -32.9581 C.3     
 132 C132         -50.0630    27.9248   -30.7030 C.2     
 133 O133         -49.4780    28.4358   -31.6284 O.2     
 134 N134         -48.1342    26.4600   -30.5514 N.am    
 135 C135         -49.4390    26.7705   -29.9620 C.3     
 136 C136         -49.2571    27.1476   -28.4904 C.3     
 137 O137         -51.2689    28.3854   -30.3348 O.3     
 138 C138          -9.0754    -6.3155   -43.7755 C.2     
 139 O139          -8.4165    -6.0029   -42.8068 O.2     
 140 C140           6.0990    -2.7544   -54.1796 C.3     
 141 C141           5.4734    -2.7937   -52.7839 C.3     
 142 C142           4.0193    -3.2576   -52.8897 C.3     
 143 C143           3.3937    -3.2969   -51.4940 C.3     
 144 C144           1.9395    -3.7608   -51.5998 C.3     
 145 C145           1.3139    -3.8001   -50.2041 C.3     
 146 C146          -0.1402    -4.2640   -50.3099 C.3     
 147 C147          -0.7658    -4.3033   -48.9142 C.3     
 148 C148          -2.2199    -4.7672   -49.0199 C.3     
 149 C149          -2.8455    -4.8065   -47.6243 C.3     
 150 C150          -4.2997    -5.2704   -47.7300 C.3     
 151 C151          -4.9253    -5.3097   -46.3343 C.3     
 152 C152          -6.3794    -5.7736   -46.4401 C.3     
 153 C153          -7.0050    -5.8129   -45.0444 C.3     
 154 C154          -8.4592    -6.2768   -45.1502 C.3     
 155 H155          -7.8062    -5.8090   -35.7078 H       
 156 H156          -9.0015    -6.9234   -36.0160 H       
 157 H157          -8.9731    -4.1129   -36.9065 H       
 158 H158         -10.9995    -6.3623   -37.2842 H       
 159 H159         -11.2992    -4.6545   -37.6863 H       
 160 H160          -9.3823    -4.6884   -39.2589 H       
 161 H161          -9.0826    -6.3962   -38.8567 H       
 162 H162         -11.3464    -6.9869   -39.6784 H       
 163 H163         -11.6461    -5.2790   -40.0805 H       
 164 H164          -9.2678    -6.0925   -41.3682 H       
 165 H165         -12.7533    -7.1291   -43.0283 H       
 166 H166         -10.8623    -7.0221   -44.3858 H       
 167 H167         -10.8020    -2.8440   -35.8030 H       
 168 H168         -11.9415    -4.1067   -33.4292 H       
 169 H169          -9.9649    -1.7893   -33.2513 H       
 170 H170         -10.9993    -2.3400   -31.9115 H       
 171 H171          -9.9721    -4.5929   -32.0445 H       
 172 H172          -8.9377    -4.0422   -33.3842 H       
 173 H173          -7.3848    -4.8934   -31.3528 H       
 174 H174          -6.8203    -3.6313   -30.3982 H       
 175 H175         -13.1845    -2.0853   -32.1518 H       
 176 H176         -14.0418    -0.0390   -34.0506 H       
 177 H177         -15.9839    -2.1341   -32.9756 H       
 178 H178         -16.4300    -0.6932   -33.9206 H       
 179 H179         -15.4548    -1.9809   -34.6682 H       
 180 H180         -16.0709     1.2078   -32.7894 H       
 181 H181         -15.7373     1.0475   -29.8927 H       
 182 H182         -14.8882     3.5001   -31.4967 H       
 183 H183         -15.0973     3.4715   -29.7293 H       
 184 H184         -13.3888     1.6827   -29.5560 H       
 185 H185         -13.1797     1.7113   -31.3234 H       
 186 H186         -10.8228     2.2642   -30.1393 H       
 187 H187         -10.5029     3.9123   -30.0748 H       
 188 H188         -17.1466     3.1466   -28.9597 H       
 189 H189         -19.3281     3.8149   -30.7823 H       
 190 H190         -19.7512     2.0978   -28.2959 H       
 191 H191         -21.0577     2.8782   -29.2191 H       
 192 H192         -20.3634     1.6374   -31.2506 H       
 193 H193         -19.0568     0.8571   -30.3274 H       
 194 H194         -20.7340    -0.1433   -28.7994 H       
 195 H195         -22.0406     0.6370   -29.7226 H       
 196 H196         -20.4715    -0.8833   -31.5124 H       
 197 H197         -22.4243    -3.7611   -31.1814 H       
 198 H198         -22.6569    -1.2912   -28.7643 H       
 199 H199         -23.2297    -2.8005   -29.2296 H       
 200 H200         -21.1136     5.0905   -29.2178 H       
 201 H201         -19.7699     6.4116   -26.9869 H       
 202 H202         -20.5406     7.8953   -29.5386 H       
 203 H203         -20.1217     8.6885   -28.0012 H       
 204 H204         -17.8985     7.5910   -28.0407 H       
 205 H205         -18.3175     6.7977   -29.5781 H       
 206 H206         -18.6023     9.0175   -30.6458 H       
 207 H207         -18.1834     9.8108   -29.1085 H       
 208 H208         -16.1048     8.0212   -29.7819 H       
 209 H209         -14.2573    10.4207   -31.5236 H       
 210 H210         -17.6153    11.0102   -30.9126 H       
 211 H211         -16.2271    11.6422   -31.6170 H       
 212 H212         -23.9952     6.8754   -25.5489 H       
 213 H213         -23.9758     9.4283   -24.4395 H       
 214 H214         -23.3189     7.9830   -23.6034 H       
 215 H215         -21.8070    10.0709   -25.2728 H       
 216 H216         -21.3609     9.3830   -23.6752 H       
 217 H217         -20.7961     7.2426   -24.6223 H       
 218 H218         -20.2266     8.3548   -25.9044 H       
 219 H219         -25.8620     8.8043   -25.7050 H       
 220 H220         -25.4586    10.4600   -28.0763 H       
 221 H221         -27.4691     8.1658   -28.0145 H       
 222 H222         -27.4445     9.4549   -29.2417 H       
 223 H223         -25.1330     8.8133   -29.8693 H       
 224 H224         -25.1576     7.5243   -28.6421 H       
 225 H225         -24.7153     6.4358   -31.0675 H       
 226 H226         -26.1116     5.8056   -31.7574 H       
 227 H227         -27.8934    11.5107   -28.5565 H       
 228 H228         -29.4241    11.7377   -26.0800 H       
 229 H229         -27.8909    14.0925   -27.2687 H       
 230 H230         -29.1511    14.2345   -26.0197 H       
 231 H231         -27.8303    12.7665   -24.5201 H       
 232 H232         -26.5700    12.6246   -25.7690 H       
 233 H233         -26.2197    15.0782   -25.6945 H       
 234 H234         -27.4800    15.2202   -24.4455 H       
 235 H235         -25.5563    13.3514   -23.5604 H       
 236 H236         -23.6310    15.7400   -21.8893 H       
 237 H237         -25.8931    16.7932   -24.2915 H       
 238 H238         -24.7392    17.3121   -23.1861 H       
 239 H239         -31.2146    13.6838   -26.5995 H       
 240 H240         -31.8223    13.7895   -29.4538 H       
 241 H241         -33.6089    12.3240   -27.4614 H       
 242 H242         -34.0972    12.7796   -29.1113 H       
 243 H243         -32.2277    11.4378   -30.0351 H       
 244 H244         -31.7393    10.9823   -28.3851 H       
 245 H245         -32.2999     8.7546   -29.7944 H       
 246 H246         -33.8480     8.1739   -29.4965 H       
 247 H247         -34.2565    14.9413   -29.5572 H       
 248 H248         -34.6608    16.7032   -27.2637 H       
 249 H249         -33.7663    17.7521   -29.9856 H       
 250 H250         -34.4172    18.7667   -28.6760 H       
 251 H251         -32.5858    18.0147   -27.1830 H       
 252 H252         -31.9349    17.0000   -28.4926 H       
 253 H253         -31.6142    19.0183   -29.8970 H       
 254 H254         -32.2652    20.0330   -28.5874 H       
 255 H255         -30.4338    19.2809   -27.0944 H       
 256 H256         -29.7829    18.2663   -28.4040 H       
 257 H257         -30.1144    21.1908   -28.5631 H       
 258 H258         -28.6759    20.3998   -28.2972 H       
 259 H259         -36.5323    18.4489   -28.1080 H       
 260 H260         -38.2411    17.2266   -30.1362 H       
 261 H261         -38.7947    15.9233   -28.1006 H       
 262 H262         -39.1218    17.4359   -27.2212 H       
 263 H263         -40.1585    16.9585   -28.5870 H       
 264 H264         -40.5240    18.6530   -30.0074 H       
 265 H265         -39.9902    21.3701   -29.0799 H       
 266 H266         -40.3877    22.3213   -31.3841 H       
 267 H267         -37.9725    20.4763   -31.1023 H       
 268 H268         -38.0900    21.8812   -32.1890 H       
 269 H269         -38.1042    22.1171   -30.4248 H       
 270 H270         -41.4676    20.3128   -32.3579 H       
 271 H271         -40.0524    20.8061   -33.3181 H       
 272 H272         -39.9362    19.4178   -32.2102 H       
 273 H273         -42.0505    22.8086   -29.6770 H       
 274 H274         -44.3843    21.2352   -30.4548 H       
 275 H275         -44.1399    22.5366   -27.7061 H       
 276 H276         -45.6584    21.9198   -28.4005 H       
 277 H277         -44.6543    19.6604   -28.5894 H       
 278 H278         -43.1359    20.2772   -27.8950 H       
 279 H279         -44.3405    20.9084   -25.8216 H       
 280 H280         -45.8589    20.2917   -26.5160 H       
 281 H281         -43.9300    18.2315   -26.6228 H       
 282 H282         -45.7908    18.8973   -23.1454 H       
 283 H283         -44.0077    16.5388   -24.9496 H       
 284 H284         -44.7928    16.8324   -23.4936 H       
 285 H285         -46.4432    22.9542   -30.1926 H       
 286 H286         -45.5457    25.7047   -30.5887 H       
 287 H287         -46.6599    25.8443   -32.8409 H       
 288 H288         -44.4221    23.7759   -32.7035 H       
 289 H289         -44.7990    24.8521   -34.0703 H       
 290 H290         -44.1765    25.5319   -32.5475 H       
 291 H291         -48.1064    23.8459   -32.5902 H       
 292 H292         -47.0926    23.7220   -34.0480 H       
 293 H293         -46.6642    22.8027   -32.5853 H       
 294 H294         -47.6416    27.1464   -31.0281 H       
 295 H295         -50.0879    25.8978   -30.0359 H       
 296 H296         -48.6081    28.0202   -28.4165 H       
 297 H297         -50.2278    27.3786   -28.0519 H       
 298 H298         -48.8057    26.3126   -27.9545 H       
 299 H299         -51.6284    29.1274   -30.8400 H       
 300 H300           6.0667    -3.7508   -54.6205 H       
 301 H301           5.5411    -2.0606   -54.8084 H       
 302 H302           7.1350    -2.4239   -54.1042 H       
 303 H303           6.0313    -3.4876   -52.1551 H       
 304 H304           5.5058    -1.7974   -52.3430 H       
 305 H305           3.4614    -2.5637   -53.5185 H       
 306 H306           3.9869    -4.2539   -53.3306 H       
 307 H307           3.9516    -3.9908   -50.8652 H       
 308 H308           3.4261    -2.3006   -51.0531 H       
 309 H309           1.3817    -3.0669   -52.2286 H       
 310 H310           1.9072    -4.7571   -52.0406 H       
 311 H311           1.8718    -4.4940   -49.5753 H       
 312 H312           1.3463    -2.8038   -49.7632 H       
 313 H313          -0.6981    -3.5701   -50.9387 H       
 314 H314          -0.1726    -5.2603   -50.7507 H       
 315 H315          -0.2079    -4.9972   -48.2853 H       
 316 H316          -0.7334    -3.3070   -48.4733 H       
 317 H317          -2.7778    -4.0733   -49.6488 H       
 318 H318          -2.2523    -5.7635   -49.4608 H       
 319 H319          -2.2876    -5.5004   -46.9954 H       
 320 H320          -2.8132    -3.8102   -47.1834 H       
 321 H321          -4.8576    -4.5765   -48.3589 H       
 322 H322          -4.3320    -6.2667   -48.1709 H       
 323 H323          -4.3674    -6.0036   -45.7055 H       
 324 H324          -4.8929    -4.3134   -45.8935 H       
 325 H325          -6.9373    -5.0797   -47.0689 H       
 326 H326          -6.4118    -6.7699   -46.8810 H       
 327 H327          -6.4471    -6.5068   -44.4156 H       
 328 H328          -6.9726    -4.8166   -44.6036 H       
 329 H329          -8.4915    -7.2731   -45.5911 H       
 330 H330          -9.0170    -5.5829   -45.7790 H       
@<TRIPOS>BOND
   1    1    2 2
   2    1    4 1
   3    1   14 am
   4    3    4 1
   5    3  155 1
   6    3  156 1
   7    4    5 1
   8    4  157 1
   9    5    6 1
  10    5  158 1
  11    5  159 1
  12    6    7 1
  13    6  160 1
  14    6  161 1
  15    7    8 1
  16    7  162 1
  17    7  163 1
  18    8    9 1
  19    8  164 1
  20    9   10 2
  21    9   11 1
  22   10  165 1
  23   11  138 am
  24   11  166 1
  25   12   13 2
  26   12   15 1
  27   12   23 am
  28   14   15 1
  29   14  167 1
  30   15   16 1
  31   15  168 1
  32   16   17 1
  33   16  169 1
  34   16  170 1
  35   17   18 1
  36   17  171 1
  37   17  172 1
  38   18   19 2
  39   18   20 am
  40   20  173 1
  41   20  174 1
  42   21   22 2
  43   21   24 1
  44   21   28 am
  45   23   24 1
  46   23  175 1
  47   24   25 1
  48   24  176 1
  49   25  177 1
  50   25  178 1
  51   25  179 1
  52   26   27 2
  53   26   29 1
  54   26   37 am
  55   28   29 1
  56   28  180 1
  57   29   30 1
  58   29  181 1
  59   30   31 1
  60   30  182 1
  61   30  183 1
  62   31   32 1
  63   31  184 1
  64   31  185 1
  65   32   33 2
  66   32   34 am
  67   34  186 1
  68   34  187 1
  69   35   36 2
  70   35   38 1
  71   35   48 am
  72   37   38 1
  73   37  188 1
  74   38   39 1
  75   38  189 1
  76   39   40 1
  77   39  190 1
  78   39  191 1
  79   40   41 1
  80   40  192 1
  81   40  193 1
  82   41   42 1
  83   41  194 1
  84   41  195 1
  85   42   43 1
  86   42  196 1
  87   43   44 2
  88   43   45 1
  89   44  197 1
  90   45  198 1
  91   45  199 1
  92   46   47 2
  93   46   49 1
  94   46   59 am
  95   48   49 1
  96   48  200 1
  97   49   50 1
  98   49  201 1
  99   50   51 1
 100   50  202 1
 101   50  203 1
 102   51   52 1
 103   51  204 1
 104   51  205 1
 105   52   53 1
 106   52  206 1
 107   52  207 1
 108   53   54 1
 109   53  208 1
 110   54   55 2
 111   54   56 1
 112   55  209 1
 113   56  210 1
 114   56  211 1
 115   57   58 2
 116   57   66 am
 117   57   60 1
 118   59   60 1
 119   59   63 1
 120   60   61 1
 121   60  212 1
 122   61   62 1
 123   61  213 1
 124   61  214 1
 125   62   63 1
 126   62  215 1
 127   62  216 1
 128   63  217 1
 129   63  218 1
 130   64   65 2
 131   64   67 1
 132   64   75 am
 133   66   67 1
 134   66  219 1
 135   67   68 1
 136   67  220 1
 137   68   69 1
 138   68  221 1
 139   68  222 1
 140   69   70 1
 141   69  223 1
 142   69  224 1
 143   70   71 2
 144   70   72 am
 145   72  225 1
 146   72  226 1
 147   73   74 2
 148   73   76 1
 149   73   86 am
 150   75   76 1
 151   75  227 1
 152   76   77 1
 153   76  228 1
 154   77   78 1
 155   77  229 1
 156   77  230 1
 157   78   79 1
 158   78  231 1
 159   78  232 1
 160   79   80 1
 161   79  233 1
 162   79  234 1
 163   80   81 1
 164   80  235 1
 165   81   82 2
 166   81   83 1
 167   82  236 1
 168   83  237 1
 169   83  238 1
 170   84   85 2
 171   84   87 1
 172   84   95 am
 173   86   87 1
 174   86  239 1
 175   87   88 1
 176   87  240 1
 177   88   89 1
 178   88  241 1
 179   88  242 1
 180   89   90 1
 181   89  243 1
 182   89  244 1
 183   90   91 2
 184   90   92 am
 185   92  245 1
 186   92  246 1
 187   93   94 2
 188   93   96 1
 189   93  104 am
 190   95   96 1
 191   95  247 1
 192   96   97 1
 193   96  248 1
 194   97   98 1
 195   97  249 1
 196   97  250 1
 197   98   99 1
 198   98  251 1
 199   98  252 1
 200   99  100 1
 201   99  253 1
 202   99  254 1
 203  100  101 1
 204  100  255 1
 205  100  256 1
 206  101  257 1
 207  101  258 1
 208  102  103 2
 209  102  105 1
 210  102  109 am
 211  104  105 1
 212  104  259 1
 213  105  106 1
 214  105  260 1
 215  106  261 1
 216  106  262 1
 217  106  263 1
 218  107  108 2
 219  107  110 1
 220  107  116 am
 221  109  110 1
 222  109  264 1
 223  110  111 1
 224  110  265 1
 225  111  112 1
 226  111  113 1
 227  111  266 1
 228  112  267 1
 229  112  268 1
 230  112  269 1
 231  113  270 1
 232  113  271 1
 233  113  272 1
 234  114  115 2
 235  114  117 1
 236  114  127 am
 237  116  117 1
 238  116  273 1
 239  117  118 1
 240  117  274 1
 241  118  119 1
 242  118  275 1
 243  118  276 1
 244  119  120 1
 245  119  277 1
 246  119  278 1
 247  120  121 1
 248  120  279 1
 249  120  280 1
 250  121  122 1
 251  121  281 1
 252  122  123 2
 253  122  124 1
 254  123  282 1
 255  124  283 1
 256  124  284 1
 257  125  126 2
 258  125  128 1
 259  125  134 am
 260  127  128 1
 261  127  285 1
 262  128  129 1
 263  128  286 1
 264  129  130 1
 265  129  131 1
 266  129  287 1
 267  130  288 1
 268  130  289 1
 269  130  290 1
 270  131  291 1
 271  131  292 1
 272  131  293 1
 273  132  133 2
 274  132  135 1
 275  132  137 1
 276  134  135 1
 277  134  294 1
 278  135  136 1
 279  135  295 1
 280  136  296 1
 281  136  297 1
 282  136  298 1
 283  137  299 1
 284  138  139 2
 285  138  154 1
 286  140  141 1
 287  140  300 1
 288  140  301 1
 289  140  302 1
 290  141  142 1
 291  141  303 1
 292  141  304 1
 293  142  143 1
 294  142  305 1
 295  142  306 1
 296  143  144 1
 297  143  307 1
 298  143  308 1
 299  144  145 1
 300  144  309 1
 301  144  310 1
 302  145  146 1
 303  145  311 1
 304  145  312 1
 305  146  147 1
 306  146  313 1
 307  146  314 1
 308  147  148 1
 309  147  315 1
 310  147  316 1
 311  148  149 1
 312  148  317 1
 313  148  318 1
 314  149  150 1
 315  149  319 1
 316  149  320 1
 317  150  151 1
 318  150  321 1
 319  150  322 1
 320  151  152 1
 321  151  323 1
 322  151  324 1
 323  152  153 1
 324  152  325 1
 325  152  326 1
 326  153  154 1
 327  153  327 1
 328  153  328 1
 329  154  329 1
 330  154  330 1

#	End of record

