#	Name: ASD05313042
#	Creating user name:	WinNT
#	Creation time:	15. 06. 2019 20:58

#	Modifying user name:	WinNT
#	Modification time:	15. 06. 2019 20:58

#	Program:	/corina/corina34_cracker 3.40 0067  02.08.2006

@<TRIPOS>MOLECULE
ASD05313042
  38   41    0    0    0
SMALL
NO_CHARGES


@<TRIPOS>ATOM
   1 C1            -0.0732     0.8214     1.0168 C.2     
   2 C2             0.1124    -0.6156     0.5919 C.3     
   3 N3             0.9360     1.7375     1.0428 N.pl3   
   4 N4             1.4565    -0.7159    -0.0079 N.am    
   5 C5             2.5711    -0.0360     0.6691 C.3     
   6 C6             2.3222     1.4769     0.6594 C.3     
   7 N7            -0.8992     2.6487     1.6953 N.2     
   8 N8            -1.1554     1.4166     1.4169 N.2     
   9 C9             0.3772     2.8977     1.4836 C.2     
  10 C10            2.3363     4.4081     1.1456 C.ar    
  11 C11            1.0703     4.1885     1.6890 C.ar    
  12 C12            0.4668     5.2095     2.4312 C.ar    
  13 C13            1.1569     6.3983     2.5937 C.ar    
  14 C14            2.4088     6.5376     2.0229 C.ar    
  15 N15            2.9531     5.5573     1.3275 N.ar    
  16 C16            1.6575    -1.4117    -1.1445 C.2     
  17 O17            2.7499    -1.4020    -1.6781 O.2     
  18 C18            0.5510    -2.1856    -1.7418 C.ar    
  19 C19            0.3197    -2.1306    -3.1195 C.ar    
  20 C20           -0.7157    -2.8567    -3.6715 C.ar    
  21 C21           -1.5249    -3.6390    -2.8625 C.ar    
  22 C22           -1.2997    -3.6964    -1.4954 C.ar    
  23 C23           -0.2650    -2.9801    -0.9335 C.ar    
  24 F24           -2.5373    -4.3480    -3.4080 F       
  25 Cl25           1.3324    -1.1506    -4.1333 Cl      
  26 H26            0.0420    -1.2721     1.4592 H       
  27 H27           -0.6446    -0.8869    -0.1438 H       
  28 H28            2.6396    -0.3866     1.6989 H       
  29 H29            3.5023    -0.2551     0.1467 H       
  30 H30            2.5032     1.8688    -0.3415 H       
  31 H31            2.9935     1.9616     1.3683 H       
  32 H32            2.8164     3.6275     0.5742 H       
  33 H33           -0.5125     5.0738     2.8658 H       
  34 H34            0.7221     7.2086     3.1600 H       
  35 H35            2.9496     7.4641     2.1480 H       
  36 H36           -0.8962    -2.8151    -4.7355 H       
  37 H37           -1.9340    -4.3072    -0.8701 H       
  38 H38           -0.0881    -3.0299     0.1308 H       
@<TRIPOS>BOND
   1    1    2 1
   2    1    3 1
   3    1    8 2
   4    2    4 1
   5    2   26 1
   6    2   27 1
   7    3    6 1
   8    3    9 1
   9    4    5 1
  10    4   16 am
  11    5    6 1
  12    5   28 1
  13    5   29 1
  14    6   30 1
  15    6   31 1
  16    7    8 1
  17    7    9 2
  18    9   11 1
  19   10   11 ar
  20   10   15 ar
  21   10   32 1
  22   11   12 ar
  23   12   13 ar
  24   12   33 1
  25   13   14 ar
  26   13   34 1
  27   14   15 ar
  28   14   35 1
  29   16   17 2
  30   16   18 1
  31   18   19 ar
  32   18   23 ar
  33   19   20 ar
  34   19   25 1
  35   20   21 ar
  36   20   36 1
  37   21   22 ar
  38   21   24 1
  39   22   23 ar
  40   22   37 1
  41   23   38 1

#	End of record

