#	Name: ASD02560135
#	Creating user name:	WinNT
#	Creation time:	15. 06. 2019 20:24

#	Modifying user name:	WinNT
#	Modification time:	15. 06. 2019 20:24

#	Program:	/corina/corina34_cracker 3.40 0067  02.08.2006

@<TRIPOS>MOLECULE
ASD02560135
  65   68    0    0    0
SMALL
NO_CHARGES


@<TRIPOS>ATOM
   1 N1            -0.1344     1.6832    -0.1917 N.2     
   2 N2            -0.0269     0.4554    -0.2691 N.2     
   3 C3             1.1802     2.3242    -0.0582 C.3     
   4 N4             2.0997     1.2248     0.3296 N.3     
   5 C5             1.3802     0.0399    -0.2023 C.3     
   6 S6             1.5695    -1.3712     0.9218 S.3     
   7 C7             0.8407    -0.7623     2.4674 C.3     
   8 C8             0.9229    -1.8381     3.5195 C.2     
   9 O9             1.4238    -2.9101     3.2529 O.2     
  10 N10            0.4398    -1.6091     4.7566 N.am    
  11 C11            1.6130     2.9352    -1.3925 C.3     
  12 C12            3.3445     1.3727    -0.2865 C.ar    
  13 C13            0.4043    -2.6449     5.6967 C.ar    
  14 C14            0.4066    -2.3528     7.0546 C.ar    
  15 C15            0.3716    -3.3773     7.9798 C.ar    
  16 C16            0.3343    -4.6931     7.5556 C.ar    
  17 C17            0.3324    -4.9873     6.2047 C.ar    
  18 C18            0.3611    -3.9668     5.2741 C.ar    
  19 S19            0.2897    -5.9975     8.7394 S.o2    
  20 O20            0.8031    -7.1501     8.0860 O.2     
  21 O21            0.8444    -5.4714     9.9373 O.2     
  22 C22            4.1888     2.4160     0.0968 C.ar    
  23 C23            3.7366     0.4791    -1.2709 C.ar    
  24 C24            4.9682     0.6275    -1.8785 C.ar    
  25 C25            5.8004     1.6611    -1.5005 C.ar    
  26 C26            5.4160     2.5551    -0.5083 C.ar    
  27 C27            6.3822     3.6502    -0.1390 C.3     
  28 C28            5.6645     4.7684     0.6141 C.3     
  29 C29            4.8677     4.1427     1.7648 C.3     
  30 C30            3.7004     3.3569     1.1667 C.3     
  31 N31           -1.3038    -6.3131     9.0612 N.am    
  32 C32            7.1430     1.8188    -2.1665 C.3     
  33 C33            8.2157     1.1288    -1.3213 C.3     
  34 C34            0.4477    -0.9193     7.5177 C.3     
  35 H35            1.1529     3.0881     0.7189 H       
  36 H36            1.7488    -0.2134    -1.1963 H       
  37 H37            1.3874     0.1183     2.8047 H       
  38 H38           -0.2033    -0.4990     2.2978 H       
  39 H39            0.1167    -0.7262     4.9954 H       
  40 H40            0.8514     3.6354    -1.7356 H       
  41 H41            2.5582     3.4619    -1.2613 H       
  42 H42            1.7378     2.1434    -2.1312 H       
  43 H43            0.3736    -3.1508     9.0358 H       
  44 H44            0.3036    -6.0158     5.8766 H       
  45 H45            0.3592    -4.1972     4.2190 H       
  46 H46            3.0824    -0.3297    -1.5612 H       
  47 H47            5.2792    -0.0642    -2.6474 H       
  48 H48            7.1682     3.2378     0.4936 H       
  49 H49            6.8284     4.0569    -1.0465 H       
  50 H50            6.3964     5.4705     1.0135 H       
  51 H51            4.9861     5.2894    -0.0616 H       
  52 H52            5.5113     3.4736     2.3358 H       
  53 H53            4.4845     4.9285     2.4159 H       
  54 H54            2.9817     4.0536     0.7352 H       
  55 H55            3.2137     2.7813     1.9541 H       
  56 H56           -1.5798    -7.2085     9.3123 H       
  57 H57           -1.9612    -5.6026     8.9987 H       
  58 H58            7.1129     1.3645    -3.1569 H       
  59 H59            7.3801     2.8786    -2.2599 H       
  60 H60            7.9786     0.0690    -1.2279 H       
  61 H61            9.1868     1.2428    -1.8030 H       
  62 H62            8.2458     1.5830    -0.3309 H       
  63 H63           -0.5696    -0.5426     7.6243 H       
  64 H64            0.9588    -0.8624     8.4787 H       
  65 H65            0.9835    -0.3159     6.7849 H       
@<TRIPOS>BOND
   1    1    2 2
   2    1    3 1
   3    2    5 1
   4    3    4 1
   5    3   11 1
   6    3   35 1
   7    4    5 1
   8    4   12 1
   9    5    6 1
  10    5   36 1
  11    6    7 1
  12    7    8 1
  13    7   37 1
  14    7   38 1
  15    8    9 2
  16    8   10 am
  17   10   13 1
  18   10   39 1
  19   11   40 1
  20   11   41 1
  21   11   42 1
  22   12   22 ar
  23   12   23 ar
  24   13   14 ar
  25   13   18 ar
  26   14   15 ar
  27   14   34 1
  28   15   16 ar
  29   15   43 1
  30   16   17 ar
  31   16   19 1
  32   17   18 ar
  33   17   44 1
  34   18   45 1
  35   19   20 2
  36   19   21 2
  37   19   31 am
  38   22   26 ar
  39   22   30 1
  40   23   24 ar
  41   23   46 1
  42   24   25 ar
  43   24   47 1
  44   25   26 ar
  45   25   32 1
  46   26   27 1
  47   27   28 1
  48   27   48 1
  49   27   49 1
  50   28   29 1
  51   28   50 1
  52   28   51 1
  53   29   30 1
  54   29   52 1
  55   29   53 1
  56   30   54 1
  57   30   55 1
  58   31   56 1
  59   31   57 1
  60   32   33 1
  61   32   58 1
  62   32   59 1
  63   33   60 1
  64   33   61 1
  65   33   62 1
  66   34   63 1
  67   34   64 1
  68   34   65 1

#	End of record

