#	Name: ASD01903237
#	Creating user name:	WinNT
#	Creation time:	15. 06. 2019 19:54

#	Modifying user name:	WinNT
#	Modification time:	15. 06. 2019 19:54

#	Program:	/corina/corina34_cracker 3.40 0067  02.08.2006

@<TRIPOS>MOLECULE
ASD01903237
  40   43    0    0    0
SMALL
NO_CHARGES


@<TRIPOS>ATOM
   1 S1            -0.0242     1.7576    -0.0308 S.3     
   2 C2             0.0013    -0.0032    -0.0099 C.2     
   3 N3             1.2319    -0.4154    -0.0142 N.2     
   4 C4             2.1770     0.5139    -0.0325 C.2     
   5 C5             1.7377     1.7834    -0.0444 C.2     
   6 N6            -1.1185    -0.8214     0.0083 N.pl3   
   7 C7            -2.3870    -0.2621     0.1280 C.ar    
   8 C8             3.6228     0.1748    -0.0393 C.2     
   9 C9             4.6424     0.8858    -0.7082 C.2     
  10 N10            5.7790     0.2860    -0.4801 N.2     
  11 N11            5.5409    -0.8256     0.3375 N.am    
  12 C12            4.2054    -0.8747     0.6034 C.2     
  13 N13           -2.5133     1.0404     0.3295 N.ar    
  14 C14           -3.6974     1.6106     0.4481 C.ar    
  15 C15           -4.8548     0.8627     0.3658 C.ar    
  16 C16           -4.7659    -0.5071     0.1550 C.ar    
  17 C17           -3.5113    -1.0755     0.0290 C.ar    
  18 C18            6.4703    -1.6923     0.7864 C.2     
  19 C19            7.8920    -1.5089     0.4185 C.ar    
  20 O20            6.1412    -2.6236     1.4927 O.2     
  21 C21            8.8483    -2.4085     0.8858 C.ar    
  22 C22           10.1759    -2.2234     0.5326 C.ar    
  23 C23           10.5011    -1.1455    -0.2755 C.ar    
  24 C24            9.4977    -0.2901    -0.7041 C.ar    
  25 N25            8.2452    -0.4917    -0.3587 N.ar    
  26 C26            2.6028     3.0171    -0.0661 C.3     
  27 H27           -1.0174    -1.7836    -0.0623 H       
  28 H28            4.5053     1.7742    -1.3069 H       
  29 H29            3.7007    -1.6140     1.2077 H       
  30 H30           -3.7619     2.6761     0.6119 H       
  31 H31           -5.8195     1.3379     0.4647 H       
  32 H32           -5.6565    -1.1143     0.0872 H       
  33 H33           -3.4056    -2.1377    -0.1357 H       
  34 H34            8.5593    -3.2377     1.5145 H       
  35 H35           10.9397    -2.9037     0.8796 H       
  36 H36           11.5262    -0.9733    -0.5683 H       
  37 H37            9.7478     0.5508    -1.3339 H       
  38 H38            2.8033     3.3021    -1.0989 H       
  39 H39            2.0867     3.8317     0.4420 H       
  40 H40            3.5441     2.8099     0.4429 H       
@<TRIPOS>BOND
   1    1    2 1
   2    1    5 1
   3    2    3 2
   4    2    6 1
   5    3    4 1
   6    4    5 2
   7    4    8 1
   8    5   26 1
   9    6    7 1
  10    6   27 1
  11    7   13 ar
  12    7   17 ar
  13    8    9 1
  14    8   12 2
  15    9   10 2
  16    9   28 1
  17   10   11 1
  18   11   12 1
  19   11   18 am
  20   12   29 1
  21   13   14 ar
  22   14   15 ar
  23   14   30 1
  24   15   16 ar
  25   15   31 1
  26   16   17 ar
  27   16   32 1
  28   17   33 1
  29   18   19 1
  30   18   20 2
  31   19   21 ar
  32   19   25 ar
  33   21   22 ar
  34   21   34 1
  35   22   23 ar
  36   22   35 1
  37   23   24 ar
  38   23   36 1
  39   24   25 ar
  40   24   37 1
  41   26   38 1
  42   26   39 1
  43   26   40 1

#	End of record

