#	Name: ASD01912048
#	Creating user name:	WinNT
#	Creation time:	15. 06. 2019 19:58

#	Modifying user name:	WinNT
#	Modification time:	15. 06. 2019 19:58

#	Program:	/corina/corina34_cracker 3.40 0067  02.08.2006

@<TRIPOS>MOLECULE
ASD01912048
  40   42    0    0    0
SMALL
NO_CHARGES


@<TRIPOS>ATOM
   1 C1            -0.0166     1.3795     0.0199 C.ar    
   2 C2             0.0020    -0.0040    -0.0017 C.ar    
   3 C3             1.2056    -0.6863    -0.0297 C.ar    
   4 C4             2.3965     0.0093    -0.0367 C.ar    
   5 C5             2.3856     1.4065    -0.0155 C.ar    
   6 C6             1.1663     2.0886     0.0132 C.ar    
   7 C7             3.6180     2.1358    -0.0221 C.1     
   8 C8             4.6284     2.7337    -0.0276 C.1     
   9 C9             5.8607     3.4630    -0.0342 C.ar    
  10 C10            5.8580     4.8661    -0.0130 C.ar    
  11 C11            7.0727     5.5245    -0.0206 C.ar    
  12 C12            8.2507     4.7793    -0.0487 C.ar    
  13 N13            8.2185     3.4560    -0.0682 N.ar    
  14 C14            7.0829     2.7885    -0.0561 C.ar    
  15 N15            9.4796     5.4367    -0.0569 N.am    
  16 C16            9.6394     6.8922    -0.1571 C.3     
  17 C17           10.6705     4.8197     0.0317 C.2     
  18 C18           11.7888     5.8373    -0.0182 C.3     
  19 C19           11.1127     7.1180    -0.5633 C.3     
  20 O20           10.8259     3.6215     0.1371 O.2     
  21 C21           11.2542     7.2070    -2.0842 C.3     
  22 C22           11.6822     8.3675     0.1115 C.3     
  23 F23            7.1185     6.8746    -0.0013 F       
  24 H24           -0.9598     1.9053     0.0375 H       
  25 H25           -0.9274    -0.5540     0.0037 H       
  26 H26            1.2124    -1.7662    -0.0457 H       
  27 H27            3.3351    -0.5245    -0.0582 H       
  28 H28            1.1503     3.1684     0.0293 H       
  29 H29            4.9296     5.4176     0.0083 H       
  30 H30            7.0973     1.7087    -0.0728 H       
  31 H31            8.9721     7.2933    -0.9199 H       
  32 H32            9.4376     7.3610     0.8060 H       
  33 H33           12.1875     6.0152     0.9805 H       
  34 H34           12.5784     5.5037    -0.6914 H       
  35 H35           10.8046     6.3264    -2.5430 H       
  36 H36           10.7482     8.1027    -2.4444 H       
  37 H37           12.3105     7.2551    -2.3486 H       
  38 H38           12.7483     8.4422    -0.1028 H       
  39 H39           11.1719     9.2515    -0.2710 H       
  40 H40           11.5321     8.2990     1.1889 H       
@<TRIPOS>BOND
   1    1    2 ar
   2    1    6 ar
   3    1   24 1
   4    2    3 ar
   5    2   25 1
   6    3    4 ar
   7    3   26 1
   8    4    5 ar
   9    4   27 1
  10    5    6 ar
  11    5    7 1
  12    6   28 1
  13    7    8 3
  14    8    9 1
  15    9   10 ar
  16    9   14 ar
  17   10   11 ar
  18   10   29 1
  19   11   12 ar
  20   11   23 1
  21   12   13 ar
  22   12   15 1
  23   13   14 ar
  24   14   30 1
  25   15   16 1
  26   15   17 am
  27   16   19 1
  28   16   31 1
  29   16   32 1
  30   17   18 1
  31   17   20 2
  32   18   19 1
  33   18   33 1
  34   18   34 1
  35   19   21 1
  36   19   22 1
  37   21   35 1
  38   21   36 1
  39   21   37 1
  40   22   38 1
  41   22   39 1
  42   22   40 1

#	End of record

