#	Name: ASD03930126
#	Creating user name:	WinNT
#	Creation time:	15. 06. 2019 20:47

#	Modifying user name:	WinNT
#	Modification time:	15. 06. 2019 20:47

#	Program:	/corina/corina34_cracker 3.40 0067  02.08.2006

@<TRIPOS>MOLECULE
ASD03930126
  50   52    0    0    0
SMALL
NO_CHARGES


@<TRIPOS>ATOM
   1 C1            -0.0167     1.3779     0.0096 C.ar    
   2 C2             0.0021    -0.0041     0.0020 C.ar    
   3 C3             1.2084    -0.6771    -0.0131 C.ar    
   4 C4             2.3998     0.0283    -0.0203 C.ar    
   5 C5             2.3810     1.4107    -0.0127 C.ar    
   6 C6             1.1710     2.0835     0.0021 C.ar    
   7 C7             3.8311    -0.4638    -0.0366 C.3     
   8 C8             4.6800     0.7483     0.4020 C.3     
   9 C9             3.7985     1.9416    -0.0234 C.3     
  10 N10            5.9623     0.7696    -0.3061 N.am    
  11 C11           -1.2922    -0.7760     0.0107 C.3     
  12 N12           -1.7253    -1.0187    -1.3676 N.pl3   
  13 N13           -1.3892    -2.1283    -2.1538 N.2     
  14 C14           -1.9625    -1.9905    -3.3217 C.2     
  15 C15           -2.6810    -0.7905    -3.3169 C.2     
  16 C16           -2.5233    -0.2157    -2.1021 C.2     
  17 S17            7.3250     1.3093     0.4647 S.o2    
  18 O18            8.3460     1.2115    -0.5189 O.2     
  19 O19            6.9467     2.5678     1.0053 O.2     
  20 C20            7.6019     0.1038     1.7916 C.3     
  21 C21            7.8018    -1.2862     1.1844 C.3     
  22 C22            8.8488     0.4974     2.5862 C.3     
  23 C23           -3.4927    -0.2384    -4.4604 C.3     
  24 O24           -3.4218    -1.1346    -5.5711 O.3     
  25 F25           -2.2423     2.1366    -1.9552 F       
  26 F26           -4.3373     1.3000    -2.3158 F       
  27 C27           -3.1227     1.0921    -1.6534 C.3     
  28 F28           -3.3451     1.0539    -0.2727 F       
  29 H29           -0.9589     1.9056     0.0170 H       
  30 H30            1.2222    -1.7570    -0.0190 H       
  31 H31            1.1556     3.1633     0.0077 H       
  32 H32            3.9560    -1.2873     0.6665 H       
  33 H33            4.1116    -0.7780    -1.0420 H       
  34 H34            4.8323     0.7444     1.4813 H       
  35 H35            4.0702     2.2744    -1.0252 H       
  36 H36            3.9011     2.7605     0.6887 H       
  37 H37            6.0132     0.4676    -1.2265 H       
  38 H38           -1.1433    -1.7292     0.5180 H       
  39 H39           -2.0549    -0.2005     0.5353 H       
  40 H40           -1.8927    -2.6835    -4.1472 H       
  41 H41            6.7376     0.0894     2.4556 H       
  42 H42            6.9135    -1.5666     0.6183 H       
  43 H43            8.6661    -1.2718     0.5204 H       
  44 H44            7.9682    -2.0106     1.9817 H       
  45 H45            8.7064     1.4876     3.0188 H       
  46 H46            9.0152    -0.2270     3.3835 H       
  47 H47            9.7131     0.5118     1.9222 H       
  48 H48           -4.5312    -0.1277    -4.1485 H       
  49 H49           -3.0953     0.7337    -4.7519 H       
  50 H50           -3.9224    -0.8422    -6.3450 H       
@<TRIPOS>BOND
   1    1    2 ar
   2    1    6 ar
   3    1   29 1
   4    2    3 ar
   5    2   11 1
   6    3    4 ar
   7    3   30 1
   8    4    5 ar
   9    4    7 1
  10    5    6 ar
  11    5    9 1
  12    6   31 1
  13    7    8 1
  14    7   32 1
  15    7   33 1
  16    8    9 1
  17    8   10 1
  18    8   34 1
  19    9   35 1
  20    9   36 1
  21   10   17 am
  22   10   37 1
  23   11   12 1
  24   11   38 1
  25   11   39 1
  26   12   13 1
  27   12   16 1
  28   13   14 2
  29   14   15 1
  30   14   40 1
  31   15   16 2
  32   15   23 1
  33   16   27 1
  34   17   18 2
  35   17   19 2
  36   17   20 1
  37   20   21 1
  38   20   22 1
  39   20   41 1
  40   21   42 1
  41   21   43 1
  42   21   44 1
  43   22   45 1
  44   22   46 1
  45   22   47 1
  46   23   24 1
  47   23   48 1
  48   23   49 1
  49   24   50 1
  50   25   27 1
  51   26   27 1
  52   27   28 1

#	End of record

