#	Name: ASD01918107
#	Creating user name:	WinNT
#	Creation time:	15. 06. 2019 20:10

#	Modifying user name:	WinNT
#	Modification time:	15. 06. 2019 20:10

#	Program:	/corina/corina34_cracker 3.40 0067  02.08.2006

@<TRIPOS>MOLECULE
ASD01918107
  40   43    0    0    0
SMALL
NO_CHARGES


@<TRIPOS>ATOM
   1 N1            -0.0160     1.3963    -0.0216 N.am    
   2 C2             0.0063    -0.0015    -0.0142 C.2     
   3 C3             2.4135    -0.1073    -0.6641 C.3     
   4 C4             2.1684     1.3375    -1.1140 C.3     
   5 C5             1.2987     2.0652    -0.0829 C.3     
   6 C6            -0.9834    -0.8782     0.2609 C.2     
   7 C7            -0.4545    -2.1689     0.1340 C.2     
   8 N8             0.8083    -2.0700    -0.2057 N.2     
   9 N9             1.1298    -0.7175    -0.3088 N.pl3   
  10 C10           -1.2094    -3.4549     0.3517 C.3     
  11 O11           -2.5605    -3.1592     0.7110 O.3     
  12 C12           -1.1697     2.0919     0.0190 C.2     
  13 O13           -2.2345     1.5078    -0.0425 O.2     
  14 C14           -3.3825    -4.2160     0.9440 C.ar    
  15 C15           -4.7069    -4.0017     1.2970 C.ar    
  16 C16           -5.5403    -5.0777     1.5334 C.ar    
  17 C17           -5.0556    -6.3675     1.4184 C.ar    
  18 C18           -3.7359    -6.5838     1.0672 C.ar    
  19 C19           -2.9000    -5.5112     0.8237 C.ar    
  20 C20           -1.1407     3.5613     0.1382 C.2     
  21 C21           -2.2099     4.4132     0.0731 C.2     
  22 O22           -0.0577     4.3359     0.3389 O.3     
  23 N23           -0.3549     5.5064     0.3932 N.2     
  24 C24           -1.6346     5.6915     0.2456 C.2     
  25 H25            2.8728    -0.6699    -1.4769 H       
  26 H26            3.0727    -0.1125     0.2039 H       
  27 H27            3.1237     1.8535    -1.2108 H       
  28 H28            1.6605     1.3351    -2.0784 H       
  29 H29            1.1669     3.1046    -0.3836 H       
  30 H30            1.7774     2.0221     0.8954 H       
  31 H31           -1.9992    -0.6291     0.5300 H       
  32 H32           -1.1979    -4.0428    -0.5661 H       
  33 H33           -0.7364    -4.0227     1.1529 H       
  34 H34           -5.0859    -2.9944     1.3873 H       
  35 H35           -6.5713    -4.9114     1.8086 H       
  36 H36           -5.7088    -7.2074     1.6036 H       
  37 H37           -3.3594    -7.5922     0.9787 H       
  38 H38           -1.8693    -5.6807     0.5493 H       
  39 H39           -3.2506     4.1657    -0.0760 H       
  40 H40           -2.1553     6.6377     0.2556 H       
@<TRIPOS>BOND
   1    1    2 1
   2    1    5 1
   3    1   12 am
   4    2    6 2
   5    2    9 1
   6    3    4 1
   7    3    9 1
   8    3   25 1
   9    3   26 1
  10    4    5 1
  11    4   27 1
  12    4   28 1
  13    5   29 1
  14    5   30 1
  15    6    7 1
  16    6   31 1
  17    7    8 2
  18    7   10 1
  19    8    9 1
  20   10   11 1
  21   10   32 1
  22   10   33 1
  23   11   14 1
  24   12   13 2
  25   12   20 1
  26   14   15 ar
  27   14   19 ar
  28   15   16 ar
  29   15   34 1
  30   16   17 ar
  31   16   35 1
  32   17   18 ar
  33   17   36 1
  34   18   19 ar
  35   18   37 1
  36   19   38 1
  37   20   22 1
  38   20   21 2
  39   21   24 1
  40   21   39 1
  41   22   23 1
  42   23   24 2
  43   24   40 1

#	End of record

