#	Name: ASD01202035
#	Creating user name:	WinNT
#	Creation time:	15. 06. 2019 19:09

#	Modifying user name:	WinNT
#	Modification time:	15. 06. 2019 19:09

#	Program:	/corina/corina34_cracker 3.40 0067  02.08.2006

@<TRIPOS>MOLECULE
ASD01202035
  40   43    0    0    0
SMALL
NO_CHARGES


@<TRIPOS>ATOM
   1 C1            -0.0172     1.4172     0.0098 C.2     
   2 C2             0.0021    -0.0041     0.0020 C.2     
   3 C3             1.2867     1.8238    -0.0004 C.2     
   4 C4            -1.2104     2.2826     0.0205 C.2     
   5 C5             1.3079    -0.3737    -0.0124 C.2     
   6 O6             2.0686     0.7386    -0.0137 O.3     
   7 O7            -1.0843     3.4922     0.0260 O.2     
   8 N8            -2.4412     1.7334     0.0241 N.am    
   9 C9             1.8103    -1.7606    -0.0247 C.ar    
  10 C10           -3.5656     2.5490     0.0342 C.2     
  11 S11           -3.5352     4.2560     0.0353 S.3     
  12 N12           -4.7840     2.1267     0.0384 N.2     
  13 C13           -5.3005     4.2992     0.0497 C.2     
  14 C14           -5.7578     3.0430     0.0484 C.2     
  15 H15           -2.5418     0.7687     0.0197 H       
  16 C16            2.7789    -2.1562    -0.9689 C.ar    
  17 C17            3.2440    -3.4723    -0.9672 C.ar    
  18 C18            2.7556    -4.3746    -0.0460 C.ar    
  19 C19            1.8026    -3.9853     0.8822 C.ar    
  20 C20            1.3342    -2.6884     0.9020 C.ar    
  21 C21            1.7637     3.2533     0.0022 C.3     
  22 C22           -7.2840     3.0511     0.0632 C.3     
  23 C23           -7.6818     4.4757    -0.3728 C.3     
  24 C24           -6.4473     5.2929     0.0585 C.3     
  25 C25            3.2821    -1.2148    -1.9234 C.1     
  26 N26            3.6813    -0.4680    -2.6807 N.1     
  27 H27           -0.8549    -0.6613     0.0070 H       
  28 H28            3.9859    -3.7840    -1.6875 H       
  29 H29            3.1179    -5.3920    -0.0480 H       
  30 H30            1.4275    -4.7018     1.5980 H       
  31 H31            0.5918    -2.3934     1.6288 H       
  32 H32            1.8884     3.5928     1.0305 H       
  33 H33            2.7180     3.3188    -0.5203 H       
  34 H34            1.0297     3.8822    -0.5015 H       
  35 H35           -7.6733     2.3168    -0.6421 H       
  36 H36           -7.6540     2.8454     1.0676 H       
  37 H37           -7.8239     4.5281    -1.4522 H       
  38 H38           -8.5760     4.8095     0.1537 H       
  39 H39           -6.5895     5.6941     1.0619 H       
  40 H40           -6.2595     6.0992    -0.6505 H       
@<TRIPOS>BOND
   1    1    2 1
   2    1    3 2
   3    1    4 1
   4    2    5 2
   5    2   27 1
   6    3   21 1
   7    3    6 1
   8    4    7 2
   9    4    8 am
  10    5    9 1
  11    5    6 1
  12    8   15 1
  13    8   10 1
  14    9   16 ar
  15    9   20 ar
  16   10   12 2
  17   10   11 1
  18   11   13 1
  19   12   14 1
  20   13   14 2
  21   13   24 1
  22   14   22 1
  23   16   17 ar
  24   16   25 1
  25   17   18 ar
  26   17   28 1
  27   18   19 ar
  28   18   29 1
  29   19   20 ar
  30   19   30 1
  31   20   31 1
  32   21   32 1
  33   21   33 1
  34   21   34 1
  35   22   23 1
  36   22   35 1
  37   22   36 1
  38   23   24 1
  39   23   37 1
  40   23   38 1
  41   24   39 1
  42   24   40 1
  43   25   26 3

#	End of record

