#	Name: ASD03910069
#	Creating user name:	WinNT
#	Creation time:	15. 06. 2019 20:47

#	Modifying user name:	WinNT
#	Modification time:	15. 06. 2019 20:47

#	Program:	/corina/corina34_cracker 3.40 0067  02.08.2006

@<TRIPOS>MOLECULE
ASD03910069
  66   68    0    0    0
SMALL
NO_CHARGES


@<TRIPOS>ATOM
   1 C1            -0.5040    -0.6992     3.2094 C.ar    
   2 C2             0.5831    -0.2173     2.5036 C.ar    
   3 C3             0.4284     0.8418     1.6280 C.ar    
   4 C4            -0.8131     1.4220     1.4562 C.ar    
   5 C5            -1.9068     0.9404     2.1635 C.ar    
   6 C6            -1.7494    -0.1274     3.0374 C.ar    
   7 N7            -3.1660     1.5260     1.9917 N.am    
   8 C8            -3.2672     2.8487     1.7537 C.2     
   9 O9            -2.2746     3.5456     1.7703 O.2     
  10 C10           -4.4527     4.9426     1.2377 C.ar    
  11 C11           -4.2201     5.4222    -0.0381 C.ar    
  12 C12           -4.0779     6.7796    -0.2517 C.ar    
  13 C13           -4.1687     7.6618     0.8151 C.ar    
  14 C14           -4.4022     7.1780     2.0942 C.ar    
  15 C15           -4.5436     5.8197     2.3026 C.ar    
  16 O16           -4.0288     8.9975     0.6076 O.3     
  17 C17           -4.1544     9.8480     1.7490 C.3     
  18 C18           -5.5295     9.7062     2.3492 C.2     
  19 C19           -0.3309    -1.8536     4.1625 C.3     
  20 C20            1.6159     1.3638     0.8609 C.3     
  21 O21           -5.6753     9.7651     3.5517 O.2     
  22 N22           -6.5972     9.5140     1.5495 N.am    
  23 C23           -4.6136     3.4618     1.4669 C.3     
  24 C24           -7.9184     9.2763     2.1361 C.3     
  25 C25           -8.0465     7.8228     2.5130 C.2     
  26 O26           -7.1284     7.0634     2.3122 O.2     
  27 O27           -9.1806     7.3718     3.0718 O.3     
  28 C28           -9.0012     9.6362     1.1169 C.3     
  29 C29           -3.0836     9.4892     2.7942 C.3     
  30 C30           -2.2176    10.7509     2.9889 C.3     
  31 C31           -3.1403    11.9160     2.5528 C.3     
  32 C32           -3.9030    11.3154     1.3449 C.3     
  33 C33           -8.8486    11.1024     0.7070 C.3     
  34 O34           -8.8662     8.8028    -0.0360 O.3     
  35 H35            1.5551    -0.6688     2.6367 H       
  36 H36           -0.9331     2.2496     0.7728 H       
  37 H37           -2.5981    -0.5044     3.5887 H       
  38 H38           -3.9660     0.9800     2.0439 H       
  39 H39           -4.1491     4.7350    -0.8682 H       
  40 H40           -3.8958     7.1537    -1.2484 H       
  41 H41           -4.4730     7.8627     2.9264 H       
  42 H42           -4.7254     5.4426     3.2982 H       
  43 H43           -0.0868    -1.4726     5.1541 H       
  44 H44           -1.2569    -2.4265     4.2112 H       
  45 H45            0.4762    -2.4966     3.8116 H       
  46 H46            1.6999     0.8303    -0.0859 H       
  47 H47            1.4842     2.4284     0.6676 H       
  48 H48            2.5226     1.2102     1.4461 H       
  49 H49           -6.4909     9.5330     0.5855 H       
  50 H50           -5.0406     3.0006     0.5764 H       
  51 H51           -5.2768     3.2955     2.3158 H       
  52 H52           -8.0373     9.8942     3.0261 H       
  53 H53           -9.2158     6.4319     3.2963 H       
  54 H54           -9.9844     9.4839     1.5622 H       
  55 H55           -3.5585     9.2133     3.7357 H       
  56 H56           -2.4681     8.6663     2.4308 H       
  57 H57           -1.9333    10.8607     4.0354 H       
  58 H58           -1.3322    10.7076     2.3546 H       
  59 H59           -3.8320    12.1811     3.3524 H       
  60 H60           -2.5519    12.7811     2.2469 H       
  61 H61           -3.2901    11.3630     0.4448 H       
  62 H62           -4.8476    11.8375     1.1923 H       
  63 H63           -7.8364    11.2738     0.3409 H       
  64 H64           -9.5644    11.3357    -0.0812 H       
  65 H65           -9.0364    11.7421     1.5693 H       
  66 H66           -8.0134     8.8865    -0.4841 H       
@<TRIPOS>BOND
   1    1    2 ar
   2    1   19 1
   3    1    6 ar
   4    2    3 ar
   5    2   35 1
   6    3    4 ar
   7    3   20 1
   8    4    5 ar
   9    4   36 1
  10    5    6 ar
  11    5    7 1
  12    6   37 1
  13    7    8 am
  14    7   38 1
  15    8    9 2
  16    8   23 1
  17   10   11 ar
  18   10   15 ar
  19   10   23 1
  20   11   12 ar
  21   11   39 1
  22   12   13 ar
  23   12   40 1
  24   13   14 ar
  25   13   16 1
  26   14   15 ar
  27   14   41 1
  28   15   42 1
  29   16   17 1
  30   17   18 1
  31   17   29 1
  32   17   32 1
  33   18   21 2
  34   18   22 am
  35   19   43 1
  36   19   44 1
  37   19   45 1
  38   20   46 1
  39   20   47 1
  40   20   48 1
  41   22   24 1
  42   22   49 1
  43   23   50 1
  44   23   51 1
  45   24   25 1
  46   24   28 1
  47   24   52 1
  48   25   26 2
  49   25   27 1
  50   27   53 1
  51   28   33 1
  52   28   34 1
  53   28   54 1
  54   29   30 1
  55   29   55 1
  56   29   56 1
  57   30   31 1
  58   30   57 1
  59   30   58 1
  60   31   32 1
  61   31   59 1
  62   31   60 1
  63   32   61 1
  64   32   62 1
  65   33   63 1
  66   33   64 1
  67   33   65 1
  68   34   66 1

#	End of record

