#	Name: ASD01670015
#	Creating user name:	WinNT
#	Creation time:	15. 06. 2019 19:22

#	Modifying user name:	WinNT
#	Modification time:	15. 06. 2019 19:22

#	Program:	/corina/corina34_cracker 3.40 0067  02.08.2006

@<TRIPOS>MOLECULE
ASD01670015
  60   63    0    0    0
SMALL
NO_CHARGES


@<TRIPOS>ATOM
   1 C1            -0.0186     0.8566     1.9568 C.ar    
   2 C2             0.0870    -0.5201     2.0969 C.ar    
   3 C3             1.0811     1.6102     1.6563 C.ar    
   4 C4             6.8974     9.7734     4.4508 C.ar    
   5 C5             1.3010    -1.1518     1.9364 C.ar    
   6 C6             7.0441    11.1350     4.2434 C.ar    
   7 C7             4.4728     0.4025     1.1417 C.2     
   8 C8             2.3209     0.9910     1.4889 C.ar    
   9 C9             4.5155     9.9886     4.2087 C.ar    
  10 C10            5.6460     9.1974     4.4350 C.ar    
  11 C11            3.6666     1.4754     1.1724 C.2     
  12 C12            2.4334    -0.4044     1.6304 C.ar    
  13 C13            5.9349    11.9327     4.0179 C.ar    
  14 C14            4.6635    11.3651     3.9990 C.ar    
  15 C15            3.1746     9.3765     4.1904 C.2     
  16 C16            4.3540     3.5805     2.2457 C.2     
  17 C17            4.5026    13.4527     3.2287 C.3     
  18 C18            7.9718     8.7543     1.1652 C.3     
  19 C19            5.4996     8.6724     0.8135 C.3     
  20 C20            4.0697     2.9068     0.9280 C.3     
  21 C21            5.4956     7.7151     4.6610 C.3     
  22 C22            6.5754     7.1526     2.4793 C.3     
  23 C23            5.0108     5.5282     3.5543 C.3     
  24 C24            6.6190     8.5459     1.8488 C.3     
  25 C25            5.3026     7.0111     3.3164 C.3     
  26 N26            3.7537    -0.7294     1.4135 N.pl3   
  27 N27            4.7344     4.8732     2.2734 N.am    
  28 O28            2.5316     9.2912     5.2178 O.2     
  29 O29            2.6620     8.9116     3.0342 O.3     
  30 O30            4.2406     2.9595     3.2812 O.2     
  31 O31            5.8163    13.2738     3.7906 O.3     
  32 O32            3.7498    12.3469     3.7619 O.3     
  33 H33           -0.9785     1.3357     2.0817 H       
  34 H34           -0.7911    -1.1022     2.3346 H       
  35 H35            0.9913     2.6811     1.5485 H       
  36 H36            7.7691     9.1592     4.6215 H       
  37 H37            1.3731    -2.2235     2.0482 H       
  38 H38            8.0293    11.5771     4.2581 H       
  39 H39            5.5323     0.4289     0.9338 H       
  40 H40            4.0728    14.4003     3.5536 H       
  41 H41            4.5412    13.4015     2.1406 H       
  42 H42            8.0028     9.7470     0.7160 H       
  43 H43            8.7693     8.6642     1.9027 H       
  44 H44            8.1071     8.0002     0.3898 H       
  45 H45            5.6823     7.9773    -0.0060 H       
  46 H46            4.5434     8.4387     1.2818 H       
  47 H47            5.4755     9.6913     0.4271 H       
  48 H48            4.9650     2.9312     0.3068 H       
  49 H49            3.2602     3.4304     0.4194 H       
  50 H50            6.3912     7.3291     5.1479 H       
  51 H51            4.6288     7.5304     5.2956 H       
  52 H52            6.5790     6.3977     1.6930 H       
  53 H53            7.4477     7.0156     3.1184 H       
  54 H54            5.8753     5.0585     4.0234 H       
  55 H55            4.1441     5.4287     4.2078 H       
  56 H56            6.4837     9.3000     2.6241 H       
  57 H57            4.4661     7.4653     2.7853 H       
  58 H58            4.1194    -1.6272     1.4472 H       
  59 H59            4.8251     5.3699     1.4451 H       
  60 H60            1.7792     8.5186     3.0720 H       
@<TRIPOS>BOND
   1    1    2 ar
   2    1    3 ar
   3    1   33 1
   4    2    5 ar
   5    2   34 1
   6    3    8 ar
   7    3   35 1
   8    4    6 ar
   9    4   10 ar
  10    4   36 1
  11    5   12 ar
  12    5   37 1
  13    6   13 ar
  14    6   38 1
  15    7   11 2
  16    7   26 1
  17    7   39 1
  18    8   11 1
  19    8   12 ar
  20    9   10 ar
  21    9   14 ar
  22    9   15 1
  23   10   21 1
  24   11   20 1
  25   12   26 1
  26   13   14 ar
  27   13   31 1
  28   14   32 1
  29   15   28 2
  30   15   29 1
  31   16   20 1
  32   16   27 am
  33   16   30 2
  34   17   31 1
  35   17   32 1
  36   17   40 1
  37   17   41 1
  38   18   24 1
  39   18   42 1
  40   18   43 1
  41   18   44 1
  42   19   24 1
  43   19   45 1
  44   19   46 1
  45   19   47 1
  46   20   48 1
  47   20   49 1
  48   21   25 1
  49   21   50 1
  50   21   51 1
  51   22   24 1
  52   22   25 1
  53   22   52 1
  54   22   53 1
  55   23   25 1
  56   23   27 1
  57   23   54 1
  58   23   55 1
  59   24   56 1
  60   25   57 1
  61   26   58 1
  62   27   59 1
  63   29   60 1

#	End of record

