#	Name: ASD02560420
#	Creating user name:	WinNT
#	Creation time:	15. 06. 2019 20:25

#	Modifying user name:	WinNT
#	Modification time:	15. 06. 2019 20:25

#	Program:	/corina/corina34_cracker 3.40 0067  02.08.2006

@<TRIPOS>MOLECULE
ASD02560420
  43   46    0    0    0
SMALL
NO_CHARGES


@<TRIPOS>ATOM
   1 C1             0.1322     1.3902     1.0897 C.2     
   2 C2             0.1537    -0.0161     1.0802 C.2     
   3 C3             1.2830    -0.6779     0.7588 C.2     
   4 N4             2.4243     0.0066     0.4367 N.pl3   
   5 C5             2.4334     1.3828     0.4370 C.2     
   6 C6             1.2563     2.0853     0.7725 C.2     
   7 C7             3.6774    -0.4086     0.0807 C.2     
   8 C8             4.4296     0.7279    -0.1301 C.2     
   9 N9             3.6425     1.7961     0.0952 N.2     
  10 C10            5.8548     0.7663    -0.5332 C.ar    
  11 N11            4.1117    -1.7283    -0.0451 N.3     
  12 C12            2.9882    -2.6665     0.0802 C.3     
  13 C13            3.3171    -3.9827    -0.6458 C.3     
  14 C14            6.3158     1.7733    -1.3809 C.ar    
  15 C15            6.7419    -0.2011    -0.0618 C.ar    
  16 C16            7.6443     1.8040    -1.7524 C.ar    
  17 C17            8.5184     0.8385    -1.2857 C.ar    
  18 C18            8.0682    -0.1598    -0.4404 C.ar    
  19 C19            2.7627    -3.0257     1.5634 C.3     
  20 C20            2.3690    -4.5235     1.5358 C.3     
  21 C21            3.2800    -5.0959     0.4215 C.3     
  22 C22            9.9682     0.8778    -1.6953 C.3     
  23 F23           10.6919     1.6447    -0.7759 F       
  24 F24           10.4805    -0.4237    -1.7226 F       
  25 F25           10.0779     1.4490    -2.9677 F       
  26 H26           -0.7761     1.9162     1.3439 H       
  27 H27           -0.7394    -0.5686     1.3322 H       
  28 H28            1.2879    -1.7579     0.7555 H       
  29 H29            1.2487     3.1653     0.7766 H       
  30 H30            4.6024    -1.8661    -0.9159 H       
  31 H31            2.0845    -2.2244    -0.3392 H       
  32 H32            2.5725    -4.1799    -1.4170 H       
  33 H33            4.3103    -3.9254    -1.0911 H       
  34 H34            5.6342     2.5273    -1.7461 H       
  35 H35            6.3917    -0.9807     0.5984 H       
  36 H36            8.0024     2.5831    -2.4090 H       
  37 H37            8.7554    -0.9106    -0.0790 H       
  38 H38            3.6802    -2.8829     2.1343 H       
  39 H39            1.9544    -2.4265     1.9825 H       
  40 H40            2.5855    -4.9975     2.4932 H       
  41 H41            1.3176    -4.6418     1.2740 H       
  42 H42            2.8491    -6.0074     0.0073 H       
  43 H43            4.2810    -5.2874     0.8080 H       
@<TRIPOS>BOND
   1    1    2 1
   2    1    6 2
   3    1   26 1
   4    2    3 2
   5    2   27 1
   6    3    4 1
   7    3   28 1
   8    4    5 1
   9    4    7 1
  10    5    6 1
  11    5    9 2
  12    6   29 1
  13    7    8 2
  14    7   11 1
  15    8    9 1
  16    8   10 1
  17   10   14 ar
  18   10   15 ar
  19   11   12 1
  20   11   30 1
  21   12   13 1
  22   12   19 1
  23   12   31 1
  24   13   21 1
  25   13   32 1
  26   13   33 1
  27   14   16 ar
  28   14   34 1
  29   15   18 ar
  30   15   35 1
  31   16   17 ar
  32   16   36 1
  33   17   18 ar
  34   17   22 1
  35   18   37 1
  36   19   20 1
  37   19   38 1
  38   19   39 1
  39   20   21 1
  40   20   40 1
  41   20   41 1
  42   21   42 1
  43   21   43 1
  44   22   23 1
  45   22   24 1
  46   22   25 1

#	End of record

