#	Name: ASD01001161
#	Creating user name:	WinNT
#	Creation time:	15. 06. 2019 18:55

#	Modifying user name:	WinNT
#	Modification time:	15. 06. 2019 18:55

#	Program:	/corina/corina34_cracker 3.40 0067  02.08.2006

@<TRIPOS>MOLECULE
ASD01001161
  39   42    0    0    0
SMALL
NO_CHARGES


@<TRIPOS>ATOM
   1 C1            -0.0184     1.5043     0.0103 C.3     
   2 C2             0.0021    -0.0041     0.0020 C.ar    
   3 C3             1.4092     2.0452    -0.0004 C.3     
   4 C4             1.1168    -0.7132     0.4212 C.ar    
   5 C5            -1.1209    -0.6858    -0.4337 C.ar    
   6 C6             2.2044     1.3906     1.1326 C.3     
   7 C7             1.1004    -2.1037     0.4074 C.ar    
   8 N8             2.2718    -0.0515     0.8553 N.pl3   
   9 C9             3.5959     1.9674     1.1799 C.ar    
  10 C10           -0.0234    -2.7777    -0.0271 C.ar    
  11 C11           -1.1345    -2.0686    -0.4476 C.ar    
  12 C12            3.9079     2.9446     2.1064 C.ar    
  13 C13            4.5617     1.5152     0.3003 C.ar    
  14 C14            5.1842     3.4737     2.1497 C.ar    
  15 C15            5.8381     2.0443     0.3436 C.ar    
  16 C16            6.1487     3.0253     1.2667 C.ar    
  17 O17           -0.6987     1.9453     1.1880 O.3     
  18 C18            1.4090     3.5627     0.1634 C.3     
  19 C19           -0.7824     3.3637     1.3296 C.3     
  20 C20            0.6327     3.9420     1.4279 C.3     
  21 Cl21          -2.5478    -2.9159    -0.9940 Cl      
  22 H22           -0.5497     1.8649    -0.8705 H       
  23 H23            1.8776     1.8019    -0.9541 H       
  24 H24           -1.9898    -0.1359    -0.7637 H       
  25 H25            1.7005     1.5608     2.0841 H       
  26 H26            1.9677    -2.6568     0.7366 H       
  27 H27            3.1034    -0.5371     0.9715 H       
  28 H28           -0.0354    -3.8576    -0.0381 H       
  29 H29            3.1544     3.2949     2.7963 H       
  30 H30            4.3192     0.7483    -0.4204 H       
  31 H31            5.4278     4.2377     2.8732 H       
  32 H32            6.5928     1.6907    -0.3433 H       
  33 H33            7.1459     3.4386     1.3006 H       
  34 H34            2.4358     3.9189     0.2472 H       
  35 H35            0.9356     4.0215    -0.7046 H       
  36 H36           -1.2899     3.7872     0.4629 H       
  37 H37           -1.3393     3.6073     2.2344 H       
  38 H38            1.1357     3.5303     2.3028 H       
  39 H39            0.5788     5.0274     1.5118 H       
@<TRIPOS>BOND
   1    1    2 1
   2    1    3 1
   3    1   17 1
   4    1   22 1
   5    2    4 ar
   6    2    5 ar
   7    3    6 1
   8    3   18 1
   9    3   23 1
  10    4    7 ar
  11    4    8 1
  12    5   11 ar
  13    5   24 1
  14    6    8 1
  15    6    9 1
  16    6   25 1
  17    7   10 ar
  18    7   26 1
  19    8   27 1
  20    9   12 ar
  21    9   13 ar
  22   10   11 ar
  23   10   28 1
  24   11   21 1
  25   12   14 ar
  26   12   29 1
  27   13   15 ar
  28   13   30 1
  29   14   16 ar
  30   14   31 1
  31   15   16 ar
  32   15   32 1
  33   16   33 1
  34   17   19 1
  35   18   20 1
  36   18   34 1
  37   18   35 1
  38   19   20 1
  39   19   36 1
  40   19   37 1
  41   20   38 1
  42   20   39 1

#	End of record

