#	Name: ASD01885402
#	Creating user name:	WinNT
#	Creation time:	15. 06. 2019 19:49

#	Modifying user name:	WinNT
#	Modification time:	15. 06. 2019 19:49

#	Program:	/corina/corina34_cracker 3.40 0067  02.08.2006

@<TRIPOS>MOLECULE
ASD01885402
  31   33    0    0    0
SMALL
NO_CHARGES


@<TRIPOS>ATOM
   1 C1            -0.0168     1.3902     0.0097 C.ar    
   2 C2             0.0021    -0.0041     0.0020 C.ar    
   3 N3            -1.1145    -0.7759     0.0185 N.2     
   4 C4            -2.1893    -0.5674    -0.6488 C.2     
   5 C5            -2.3477     0.6308    -1.5469 C.3     
   6 C6            -2.2771     1.8709    -0.6919 C.2     
   7 N7            -1.1813     2.1455     0.0184 N.am    
   8 C8             1.1911     2.0898     0.0019 C.ar    
   9 C9             2.3951     1.4182    -0.0178 C.ar    
  10 C10            2.4174     0.0325    -0.0302 C.ar    
  11 C11            1.2380    -0.6742    -0.0203 C.ar    
  12 C12           -3.3011    -1.5280    -0.5338 C.ar    
  13 C13           -3.2010    -2.6603     0.2900 C.ar    
  14 C14           -4.2871    -3.5157     0.3454 C.ar    
  15 N15           -5.3700    -3.2541    -0.3622 N.ar    
  16 N16           -5.4695    -2.2220    -1.1172 N.ar    
  17 C17           -4.4975    -1.3404    -1.2385 C.ar    
  18 O18           -3.2255     2.6257    -0.6491 O.2     
  19 Br19           4.0179     2.3889    -0.0287 Br      
  20 C20            1.2703    -2.1808    -0.0341 C.3     
  21 F21            2.5988    -2.6186    -0.0561 F       
  22 F22            0.6366    -2.6713     1.1126 F       
  23 F23            0.6054    -2.6511    -1.1716 F       
  24 H24           -1.5455     0.6463    -2.2846 H       
  25 H25           -3.3124     0.5868    -2.0523 H       
  26 H26           -1.1998     2.9336     0.5835 H       
  27 H27            1.1825     3.1697     0.0111 H       
  28 H28            3.3612    -0.4922    -0.0476 H       
  29 H29           -2.3059    -2.8573     0.8613 H       
  30 H30           -4.2486    -4.3977     0.9675 H       
  31 H31           -4.6189    -0.4833    -1.8842 H       
@<TRIPOS>BOND
   1    1    2 ar
   2    1    8 ar
   3    1    7 1
   4    2    3 1
   5    2   11 ar
   6    3    4 2
   7    4    5 1
   8    4   12 1
   9    5    6 1
  10    5   24 1
  11    5   25 1
  12    6    7 am
  13    6   18 2
  14    7   26 1
  15    8    9 ar
  16    8   27 1
  17    9   10 ar
  18    9   19 1
  19   10   11 ar
  20   10   28 1
  21   11   20 1
  22   12   13 ar
  23   12   17 ar
  24   13   14 ar
  25   13   29 1
  26   14   15 ar
  27   14   30 1
  28   15   16 ar
  29   16   17 ar
  30   17   31 1
  31   20   21 1
  32   20   22 1
  33   20   23 1

#	End of record

