#	Name: ASD02030663
#	Creating user name:	WinNT
#	Creation time:	15. 06. 2019 20:15

#	Modifying user name:	WinNT
#	Modification time:	15. 06. 2019 20:15

#	Program:	/corina/corina34_cracker 3.40 0067  02.08.2006

@<TRIPOS>MOLECULE
ASD02030663
  38   41    0    0    0
SMALL
NO_CHARGES


@<TRIPOS>ATOM
   1 C1            -0.0163     1.3460     0.0043 C.2     
   2 N2             0.0020    -0.0041    -0.0006 N.am    
   3 N3             2.3490    -0.0012    -0.0247 N.2     
   4 C4             2.3786     1.3220    -0.0213 C.2     
   5 C5             1.1987     2.0404    -0.0062 C.2     
   6 C6             1.1961    -0.6687    -0.0152 C.2     
   7 O7            -1.0765     1.9517     0.0126 O.2     
   8 C8             3.7005     2.0455    -0.0323 C.3     
   9 N9             4.2002     2.1706     1.3392 N.pl3   
  10 C10            4.5530     2.9856     3.3473 C.2     
  11 N11            3.9355     3.2276     2.2195 N.2     
  12 C12            4.9921     1.2848     1.9798 C.2     
  13 C13            5.2274     1.7665     3.2238 C.2     
  14 C14            4.5379     3.8670     4.5696 C.3     
  15 Cl15           5.5994    -0.2046     1.3268 Cl      
  16 F16            3.6649     4.9399     4.3601 F       
  17 F17            4.1076     3.1246     5.6746 F       
  18 F18            5.8271     4.3546     4.8089 F       
  19 C19           -1.1729    -0.6939     0.0096 C.2     
  20 C20           -1.1799    -2.0479     0.0054 C.2     
  21 C21            0.0307    -2.7579    -0.0096 C.2     
  22 C22            1.2099    -2.0755    -0.0193 C.2     
  23 C23           -2.4787     0.0582     0.0262 C.3     
  24 C24           -2.9864     0.6217    -1.3025 C.3     
  25 C25           -3.6761    -0.5897    -0.6720 C.3     
  26 C26           -2.1619     0.3878    -2.4993 C.1     
  27 N27           -1.5256     0.2073    -3.4229 N.1     
  28 F28           -2.3538    -2.7164     0.0161 F       
  29 H29            1.2136     3.1203    -0.0030 H       
  30 H30            4.4176     1.4832    -0.6303 H       
  31 H31            3.5679     3.0382    -0.4625 H       
  32 H32            5.8292     1.2931     3.9854 H       
  33 H33            0.0275    -3.8379    -0.0127 H       
  34 H34            2.1481    -2.6104    -0.0313 H       
  35 H35           -2.6751     0.6393     0.9272 H       
  36 H36           -3.5171     1.5734    -1.2756 H       
  37 H37           -3.5193    -1.5599    -1.1433 H       
  38 H38           -4.6605    -0.4350    -0.2303 H       
@<TRIPOS>BOND
   1    1    2 am
   2    1    5 1
   3    1    7 2
   4    2    6 1
   5    2   19 1
   6    3    4 1
   7    3    6 2
   8    4    5 2
   9    4    8 1
  10    5   29 1
  11    6   22 1
  12    8    9 1
  13    8   30 1
  14    8   31 1
  15    9   12 1
  16    9   11 1
  17   10   11 2
  18   10   13 1
  19   10   14 1
  20   12   13 2
  21   12   15 1
  22   13   32 1
  23   14   16 1
  24   14   17 1
  25   14   18 1
  26   19   20 2
  27   19   23 1
  28   20   21 1
  29   20   28 1
  30   21   22 2
  31   21   33 1
  32   22   34 1
  33   23   24 1
  34   23   25 1
  35   23   35 1
  36   24   25 1
  37   24   26 1
  38   24   36 1
  39   25   37 1
  40   25   38 1
  41   26   27 3

#	End of record

