#	Name: ASD03091681
#	Creating user name:	WinNT
#	Creation time:	15. 06. 2019 20:31

#	Modifying user name:	WinNT
#	Modification time:	15. 06. 2019 20:31

#	Program:	/corina/corina34_cracker 3.40 0067  02.08.2006

@<TRIPOS>MOLECULE
ASD03091681
  54   58    0    0    0
SMALL
NO_CHARGES


@<TRIPOS>ATOM
   1 C1            -0.0170     1.3998     0.0097 C.ar    
   2 C2            -1.2283     2.0682     0.0306 C.ar    
   3 C3            -2.4087     1.3494     0.0435 C.ar    
   4 C4            -2.3914    -0.0360     0.0356 C.ar    
   5 C5            -1.1918    -0.7183     0.0148 C.ar    
   6 C6             0.0021    -0.0041     0.0020 C.ar    
   7 O7             1.1631     2.0665     0.0021 O.3     
   8 C8             2.2620     1.4580     0.6804 C.3     
   9 N9             2.4081     0.0565     0.2863 N.am    
  10 C10            1.3144    -0.6822    -0.0142 C.2     
  11 C11           -3.6892    -0.8018     0.0501 C.3     
  12 C12           -4.2052    -0.9426    -1.3588 C.ar    
  13 C13           -5.0417     0.0173    -1.8951 C.ar    
  14 C14           -3.8408    -2.0348    -2.1331 C.ar    
  15 C15           -4.3375    -2.1254    -3.4223 C.ar    
  16 C16           -5.1788    -1.1258    -3.8941 C.ar    
  17 N17           -5.4989    -0.0962    -3.1268 N.ar    
  18 O18            1.4088    -1.8630    -0.2883 O.2     
  19 C19            3.7406    -0.5484     0.2167 C.3     
  20 C20            4.0067    -1.0782    -1.2075 C.3     
  21 O21            4.7849    -0.1397    -1.9530 O.3     
  22 C22           -3.7269     2.0794     0.0669 C.3     
  23 C23            3.8182    -1.7624     1.1590 C.3     
  24 C24            4.1288    -2.9876     0.2746 C.3     
  25 C25            4.8045    -2.3868    -0.9830 C.3     
  26 N26           -5.6873    -1.2051    -5.1941 N.pl3   
  27 C27           -6.5117    -0.3032    -5.7876 C.2     
  28 C28           -6.7695    -0.7460    -7.0396 C.2     
  29 C29           -6.0847    -1.9531    -7.2202 C.2     
  30 N30           -5.4327    -2.2259    -6.1193 N.2     
  31 H31           -1.2513     3.1479     0.0371 H       
  32 H32           -1.1800    -1.7983     0.0090 H       
  33 H33            3.1773     1.9966     0.4346 H       
  34 H34            2.0934     1.5120     1.7559 H       
  35 H35           -3.5226    -1.7910     0.4766 H       
  36 H36           -4.4213    -0.2647     0.6532 H       
  37 H37           -5.3251     0.8715    -1.2980 H       
  38 H38           -3.1844    -2.7967    -1.7393 H       
  39 H39           -4.0741    -2.9618    -4.0528 H       
  40 H40            4.4984     0.1857     0.4904 H       
  41 H41            3.0669    -1.2851    -1.7194 H       
  42 H42            5.0307    -0.4465    -2.8364 H       
  43 H43           -4.0596     2.2614    -0.9550 H       
  44 H44           -4.4684     1.4737     0.5879 H       
  45 H45           -3.6062     3.0309     0.5846 H       
  46 H46            4.6142    -1.6178     1.8894 H       
  47 H47            2.8645    -1.9015     1.6680 H       
  48 H48            4.8114    -3.6652     0.7875 H       
  49 H49            3.2087    -3.5050     0.0028 H       
  50 H50            4.6967    -3.0561    -1.8365 H       
  51 H51            5.8554    -2.1704    -0.7908 H       
  52 H52           -6.8926     0.6032    -5.3406 H       
  53 H53           -7.3939    -0.2545    -7.7710 H       
  54 H54           -6.0899    -2.5546    -8.1171 H       
@<TRIPOS>BOND
   1    1    6 ar
   2    1    7 1
   3    1    2 ar
   4    2    3 ar
   5    2   31 1
   6    3    4 ar
   7    3   22 1
   8    4    5 ar
   9    4   11 1
  10    5    6 ar
  11    5   32 1
  12    6   10 1
  13    7    8 1
  14    8    9 1
  15    8   33 1
  16    8   34 1
  17    9   10 am
  18    9   19 1
  19   10   18 2
  20   11   12 1
  21   11   35 1
  22   11   36 1
  23   12   14 ar
  24   12   13 ar
  25   13   17 ar
  26   13   37 1
  27   14   15 ar
  28   14   38 1
  29   15   16 ar
  30   15   39 1
  31   16   26 1
  32   16   17 ar
  33   19   23 1
  34   19   20 1
  35   19   40 1
  36   20   21 1
  37   20   25 1
  38   20   41 1
  39   21   42 1
  40   22   43 1
  41   22   44 1
  42   22   45 1
  43   23   24 1
  44   23   46 1
  45   23   47 1
  46   24   25 1
  47   24   48 1
  48   24   49 1
  49   25   50 1
  50   25   51 1
  51   26   30 1
  52   26   27 1
  53   27   28 2
  54   27   52 1
  55   28   29 1
  56   28   53 1
  57   29   30 2
  58   29   54 1

#	End of record

