#	Name: ASD01151024
#	Creating user name:	WinNT
#	Creation time:	15. 06. 2019 19:05

#	Modifying user name:	WinNT
#	Modification time:	15. 06. 2019 19:05

#	Program:	/corina/corina34_cracker 3.40 0067  02.08.2006

@<TRIPOS>MOLECULE
ASD01151024
  68   69    0    0    0
SMALL
NO_CHARGES


@<TRIPOS>ATOM
   1 C1            -0.0167     1.3830     0.0096 C.2     
   2 C2             0.0021    -0.0041     0.0020 C.2     
   3 N3            -1.2690    -0.4211     0.0127 N.2     
   4 C4            -2.0743     0.6088     0.0264 C.2     
   5 N5            -1.3559     1.7454     0.0305 N.pl3   
   6 C6            -3.5793     0.5335     0.0414 C.3     
   7 C7            -1.8875     3.1105     0.0454 C.3     
   8 C8             1.1019     2.2512     0.0036 C.2     
   9 O9             0.9184     3.5883     0.0131 O.3     
  10 O10            2.2287     1.7917    -0.0101 O.2     
  11 C11            2.0915     4.4042     0.0062 C.3     
  12 C12            2.9097     4.1104    -1.2528 C.3     
  13 N13            1.1344    -0.8127    -0.0138 N.am    
  14 C14           -4.0740     0.5009     1.4888 C.3     
  15 C15            1.0045    -2.1541    -0.0197 C.2     
  16 C16            2.2308    -3.0299    -0.0369 C.3     
  17 O17           -0.0993    -2.6565    -0.0112 O.2     
  18 C18           -2.0621     3.5740     1.4930 C.3     
  19 C19           -0.6921     3.6658     2.1679 C.3     
  20 C20           -2.7325     4.9492     1.5108 C.3     
  21 C21            1.6867     5.8796     0.0186 C.3     
  22 C22            2.9342     4.0961     1.2455 C.3     
  23 C23           -5.6020     0.4244     1.5040 C.3     
  24 C24            3.0777    -2.7460     1.2053 C.3     
  25 C25            1.8139    -4.4780    -0.0404 C.ar    
  26 C26            4.3817    -3.5424     1.1265 C.3     
  27 C27            2.1873    -5.3022    -1.0855 C.ar    
  28 C28            1.8049    -6.6306    -1.0887 C.ar    
  29 C29            1.0494    -7.1349    -0.0467 C.ar    
  30 C30            0.6768    -6.3109     0.9988 C.ar    
  31 C31            1.0629    -4.9836     1.0042 C.ar    
  32 H32           -3.9919     1.4067    -0.4640 H       
  33 H33           -3.9030    -0.3710    -0.4737 H       
  34 H34           -1.1937     3.7762    -0.4681 H       
  35 H35           -2.8523     3.1302    -0.4613 H       
  36 H36            2.3094     4.3299    -2.1357 H       
  37 H37            3.8046     4.7328    -1.2580 H       
  38 H38            3.1981     3.0593    -1.2616 H       
  39 H39            2.0172    -0.4109    -0.0207 H       
  40 H40           -3.6615    -0.3723     1.9942 H       
  41 H41           -3.7504     1.4054     2.0039 H       
  42 H42            2.8160    -2.8181    -0.9318 H       
  43 H43           -2.6849     2.8592     2.0308 H       
  44 H44           -0.8165     3.9960     3.1993 H       
  45 H45           -0.2145     2.6861     2.1552 H       
  46 H46           -0.0693     4.3806     1.6302 H       
  47 H47           -3.7086     4.8838     1.0300 H       
  48 H48           -2.8570     5.2794     2.5421 H       
  49 H49           -2.1097     5.6640     0.9731 H       
  50 H50            1.1038     6.0889     0.9156 H       
  51 H51            2.5816     6.5020     0.0134 H       
  52 H52            1.0863     6.0991    -0.8643 H       
  53 H53            3.2226     3.0450     1.2367 H       
  54 H54            3.8291     4.7185     1.2403 H       
  55 H55            2.3513     4.3054     2.1425 H       
  56 H56           -5.9544     0.4012     2.5352 H       
  57 H57           -6.0146     1.2976     0.9986 H       
  58 H58           -5.9257    -0.4801     0.9890 H       
  59 H59            3.3048    -1.6810     1.2546 H       
  60 H60            2.5249    -3.0413     2.0971 H       
  61 H61            4.1546    -4.6073     1.0772 H       
  62 H62            4.9344    -3.2470     0.2347 H       
  63 H63            4.9850    -3.3401     2.0115 H       
  64 H64            2.7776    -4.9083    -1.8996 H       
  65 H65            2.0960    -7.2744    -1.9056 H       
  66 H66            0.7500    -8.1726    -0.0496 H       
  67 H67            0.0862    -6.7049     1.8128 H       
  68 H68            0.7717    -4.3399     1.8210 H       
@<TRIPOS>BOND
   1    1    2 2
   2    1    8 1
   3    1    5 1
   4    2    3 1
   5    2   13 1
   6    3    4 2
   7    4    5 1
   8    4    6 1
   9    5    7 1
  10    6   14 1
  11    6   32 1
  12    6   33 1
  13    7   18 1
  14    7   34 1
  15    7   35 1
  16    8    9 1
  17    8   10 2
  18    9   11 1
  19   11   12 1
  20   11   21 1
  21   11   22 1
  22   12   36 1
  23   12   37 1
  24   12   38 1
  25   13   15 am
  26   13   39 1
  27   14   23 1
  28   14   40 1
  29   14   41 1
  30   15   16 1
  31   15   17 2
  32   16   24 1
  33   16   25 1
  34   16   42 1
  35   18   19 1
  36   18   20 1
  37   18   43 1
  38   19   44 1
  39   19   45 1
  40   19   46 1
  41   20   47 1
  42   20   48 1
  43   20   49 1
  44   21   50 1
  45   21   51 1
  46   21   52 1
  47   22   53 1
  48   22   54 1
  49   22   55 1
  50   23   56 1
  51   23   57 1
  52   23   58 1
  53   24   26 1
  54   24   59 1
  55   24   60 1
  56   25   27 ar
  57   25   31 ar
  58   26   61 1
  59   26   62 1
  60   26   63 1
  61   27   28 ar
  62   27   64 1
  63   28   29 ar
  64   28   65 1
  65   29   30 ar
  66   29   66 1
  67   30   31 ar
  68   30   67 1
  69   31   68 1

#	End of record

