#	Name: ASD01901088
#	Creating user name:	WinNT
#	Creation time:	15. 06. 2019 19:53

#	Modifying user name:	WinNT
#	Modification time:	15. 06. 2019 19:53

#	Program:	/corina/corina34_cracker 3.40 0067  02.08.2006

@<TRIPOS>MOLECULE
ASD01901088
  38   40    0    0    0
SMALL
NO_CHARGES


@<TRIPOS>ATOM
   1 C1            -0.0206     1.5601     0.5149 C.2     
   2 C2            -0.0064     0.0591     0.6483 C.3     
   3 C3             2.4641     1.6157     0.3571 C.ar    
   4 C4             1.2420     2.2966     0.3713 C.ar    
   5 C5             1.2414     3.6962     0.2456 C.ar    
   6 C6             2.4427     4.3397     0.1138 C.ar    
   7 C7             3.6195     3.5964     0.1080 C.ar    
   8 N8             3.5946     2.2768     0.2280 N.ar    
   9 O9             4.8086     4.2316    -0.0229 O.3     
  10 C10            5.9427     3.4878     0.0669 C.ar    
  11 C11            6.4492     2.8527    -1.0595 C.ar    
  12 C12            7.6028     2.0975    -0.9649 C.ar    
  13 C13            8.2520     1.9742     0.2499 C.ar    
  14 C14            7.7492     2.6052     1.3724 C.ar    
  15 C15            6.5993     3.3663     1.2824 C.ar    
  16 Cl16           5.6339     3.0069    -2.5844 Cl      
  17 O17           -1.3466    -0.4207     0.7737 O.3     
  18 C18           -1.5116    -1.7635     0.9040 C.ar    
  19 C19           -2.7865    -2.2984     1.0302 C.ar    
  20 C20           -2.9512    -3.6641     1.1626 C.ar    
  21 C21           -1.8474    -4.4972     1.1694 C.ar    
  22 C22           -0.5771    -3.9665     1.0442 C.ar    
  23 C23           -0.4072    -2.6021     0.9054 C.ar    
  24 Br24          -4.2960    -1.1594     1.0217 Br      
  25 O25           -1.0750     2.1596     0.5210 O.2     
  26 H26            0.4555    -0.3799    -0.2360 H       
  27 H27            0.5643    -0.2215     1.5336 H       
  28 H28            2.4800     0.5405     0.4573 H       
  29 H29            0.3150     4.2513     0.2526 H       
  30 H30            2.4768     5.4146     0.0147 H       
  31 H31            7.9973     1.6029    -1.8403 H       
  32 H32            9.1534     1.3837     0.3218 H       
  33 H33            8.2582     2.5069     2.3198 H       
  34 H34            6.2098     3.8624     2.1591 H       
  35 H35           -3.9426    -4.0810     1.2613 H       
  36 H36           -1.9781    -5.5642     1.2729 H       
  37 H37            0.2832    -4.6194     1.0502 H       
  38 H38            0.5853    -2.1889     0.8024 H       
@<TRIPOS>BOND
   1    1    2 1
   2    1    4 1
   3    1   25 2
   4    2   17 1
   5    2   26 1
   6    2   27 1
   7    3    4 ar
   8    3    8 ar
   9    3   28 1
  10    4    5 ar
  11    5    6 ar
  12    5   29 1
  13    6    7 ar
  14    6   30 1
  15    7    8 ar
  16    7    9 1
  17    9   10 1
  18   10   11 ar
  19   10   15 ar
  20   11   12 ar
  21   11   16 1
  22   12   13 ar
  23   12   31 1
  24   13   14 ar
  25   13   32 1
  26   14   15 ar
  27   14   33 1
  28   15   34 1
  29   17   18 1
  30   18   19 ar
  31   18   23 ar
  32   19   20 ar
  33   19   24 1
  34   20   21 ar
  35   20   35 1
  36   21   22 ar
  37   21   36 1
  38   22   23 ar
  39   22   37 1
  40   23   38 1

#	End of record

