#	Name: ASD01208957
#	Creating user name:	WinNT
#	Creation time:	15. 06. 2019 19:10

#	Modifying user name:	WinNT
#	Modification time:	15. 06. 2019 19:10

#	Program:	/corina/corina34_cracker 3.40 0067  02.08.2006

@<TRIPOS>MOLECULE
ASD01208957
  58   62    0    0    0
SMALL
NO_CHARGES


@<TRIPOS>ATOM
   1 C1            -2.1182     1.2763     1.7523 C.3     
   2 C2            -2.0788    -0.2415     1.5496 C.3     
   3 C3            -3.4928    -0.8053     1.7207 C.3     
   4 C4            -4.0246    -0.4173     3.1029 C.3     
   5 C5            -2.7031     1.5838     3.1333 C.3     
   6 C6            -1.5690    -0.5568     0.1419 C.3     
   7 C7            -1.3068    -2.0592     0.0190 C.3     
   8 C8            -2.6173    -2.8025     0.0560 C.2     
   9 N9            -3.6112    -2.4584    -0.7867 N.am    
  10 C10           -4.8163    -3.1420    -0.7527 C.2     
  11 N11           -0.4636    -2.5004     1.1328 N.pl3   
  12 N12            0.9271    -2.6654     1.0985 N.2     
  13 C13            1.3200    -3.0700     2.2791 C.2     
  14 C14            0.1938    -3.1755     3.1019 C.2     
  15 C15           -0.8885    -2.8141     2.3746 C.2     
  16 O16           -2.7775    -3.7102     0.8441 O.2     
  17 O17           -4.0057     1.0053     3.2370 O.3     
  18 N18           -5.8245    -2.8917    -1.5128 N.2     
  19 C19           -6.9306    -3.6461    -1.3598 C.ar    
  20 C20           -6.7978    -4.6156    -0.3613 C.ar    
  21 S21           -5.1815    -4.4783     0.3295 S.3     
  22 C22           -8.1568    -3.5778    -2.0589 C.ar    
  23 C23           -9.1594    -4.4606    -1.7304 C.ar    
  24 C24           -8.9480    -5.3973    -0.7228 C.ar    
  25 N25           -7.7980    -5.4471    -0.0802 N.ar    
  26 O26           -9.9368    -6.2686    -0.3980 O.3     
  27 C27           -9.6591    -7.2058     0.6443 C.3     
  28 S28            0.1867    -3.6821     4.7895 S.o2    
  29 C29            0.3946    -2.1421     5.7253 C.3     
  30 O30           -1.1151    -4.2155     4.9898 O.2     
  31 O31            1.3412    -4.5012     4.9143 O.2     
  32 C32            0.5475    -2.2533     7.2436 C.3     
  33 C33            1.7555    -1.8901     6.3776 C.3     
  34 H34           -1.1074     1.6788     1.6870 H       
  35 H35           -2.7425     1.7305     0.9829 H       
  36 H36           -1.4152    -0.6910     2.2883 H       
  37 H37           -4.1449    -0.3931     0.9507 H       
  38 H38           -3.4650    -1.8913     1.6328 H       
  39 H39           -5.0467    -0.7793     3.2138 H       
  40 H40           -3.3952    -0.8634     3.8729 H       
  41 H41           -2.0564     1.1639     3.9037 H       
  42 H42           -2.7732     2.6634     3.2661 H       
  43 H43           -2.3180    -0.2575    -0.5913 H       
  44 H44           -0.6436    -0.0104    -0.0402 H       
  45 H45           -0.7997    -2.2636    -0.9239 H       
  46 H46           -3.4830    -1.7323    -1.4171 H       
  47 H47            2.3380    -3.2856     2.5683 H       
  48 H48           -1.9104    -2.7886     2.7233 H       
  49 H49           -8.3044    -2.8446    -2.8379 H       
  50 H50          -10.1051    -4.4267    -2.2510 H       
  51 H51           -8.8065    -7.8228     0.3606 H       
  52 H52           -9.4285    -6.6684     1.5642 H       
  53 H53          -10.5304    -7.8411     0.8034 H       
  54 H54           -0.1446    -1.2788     5.3356 H       
  55 H55            0.1091    -1.4628     7.8527 H       
  56 H56            0.5231    -3.2517     7.6801 H       
  57 H57            2.5258    -2.6497     6.2445 H       
  58 H58            2.1118    -0.8608     6.4171 H       
@<TRIPOS>BOND
   1    1    2 1
   2    1    5 1
   3    1   34 1
   4    1   35 1
   5    2    3 1
   6    2    6 1
   7    2   36 1
   8    3    4 1
   9    3   37 1
  10    3   38 1
  11    4   17 1
  12    4   39 1
  13    4   40 1
  14    5   17 1
  15    5   41 1
  16    5   42 1
  17    6    7 1
  18    6   43 1
  19    6   44 1
  20    7    8 1
  21    7   11 1
  22    7   45 1
  23    8    9 am
  24    8   16 2
  25    9   10 1
  26    9   46 1
  27   10   18 2
  28   10   21 1
  29   11   12 1
  30   11   15 1
  31   12   13 2
  32   13   14 1
  33   13   47 1
  34   14   15 2
  35   14   28 1
  36   15   48 1
  37   18   19 1
  38   19   20 ar
  39   19   22 ar
  40   20   21 1
  41   20   25 ar
  42   22   23 ar
  43   22   49 1
  44   23   24 ar
  45   23   50 1
  46   24   25 ar
  47   24   26 1
  48   26   27 1
  49   27   51 1
  50   27   52 1
  51   27   53 1
  52   28   29 1
  53   28   30 2
  54   28   31 2
  55   29   32 1
  56   29   33 1
  57   29   54 1
  58   32   33 1
  59   32   55 1
  60   32   56 1
  61   33   57 1
  62   33   58 1

#	End of record

