#	Name: ASD01914171
#	Creating user name:	WinNT
#	Creation time:	15. 06. 2019 20:03

#	Modifying user name:	WinNT
#	Modification time:	15. 06. 2019 20:03

#	Program:	/corina/corina34_cracker 3.40 0067  02.08.2006

@<TRIPOS>MOLECULE
ASD01914171
  49   52    0    0    0
SMALL
NO_CHARGES


@<TRIPOS>ATOM
   1 C1             1.9248     0.6746     0.6025 C.2     
   2 C2             1.6040    -0.7578     0.5573 C.2     
   3 N3             0.4059    -1.2963     0.3825 N.2     
   4 C4             0.6010    -2.6228     0.4127 C.2     
   5 N5             1.8714    -2.8314     0.5990 N.2     
   6 O6             2.4688    -1.7791     0.6792 O.3     
   7 C7            -0.4606    -3.6812     0.2585 C.3     
   8 C8            -0.1382    -4.5549    -0.9559 C.3     
   9 C9            -1.2330    -5.6096    -1.1328 C.3     
  10 C10           -1.2787    -6.5056     0.1090 C.3     
  11 N11           -1.4436    -5.6581     1.2978 N.am    
  12 C12           -0.4975    -4.5553     1.5160 C.3     
  13 C13           -2.4438    -5.8878     2.1715 C.2     
  14 C14           -2.5250    -5.1083     3.4215 C.ar    
  15 O15           -3.2791    -6.7376     1.9296 O.2     
  16 C16           -1.4783    -4.2267     5.3966 C.ar    
  17 C17           -3.8031    -3.7907     4.9851 C.ar    
  18 C18           -3.7374    -4.5209     3.8082 C.ar    
  19 C19           -1.3955    -4.9564     4.2290 C.ar    
  20 C20            0.0267    -7.2959     0.2196 C.3     
  21 C21           -2.6781    -3.6433     5.7723 C.ar    
  22 C22            3.1752     1.2230     0.7850 C.2     
  23 C23            3.0227     2.6153     0.7610 C.2     
  24 C24            1.7102     2.8851     0.5685 C.2     
  25 N25            1.0322     1.7114     0.4645 N.pl3   
  26 Cl26           4.2909     3.7862     0.9459 Cl      
  27 O27           -4.8420    -4.6659     3.0339 O.3     
  28 C28           -6.0418    -4.0388     3.4915 C.3     
  29 Cl29          -0.0725    -4.0333     6.3966 Cl      
  30 H30           -1.4309    -3.2054     0.1170 H       
  31 H31           -0.0870    -3.9315    -1.8485 H       
  32 H32            0.8211    -5.0494    -0.8031 H       
  33 H33           -2.1963    -5.1160    -1.2610 H       
  34 H34           -1.0149    -6.2166    -2.0115 H       
  35 H35           -2.1199    -7.1944     0.0317 H       
  36 H36            0.4962    -4.9593     1.7095 H       
  37 H37           -0.8233    -3.9574     2.3672 H       
  38 H38           -4.7353    -3.3363     5.2863 H       
  39 H39           -0.4589    -5.4098     3.9398 H       
  40 H40            0.8646    -6.6036     0.3029 H       
  41 H41           -0.0078    -7.9326     1.1036 H       
  42 H42            0.1534    -7.9143    -0.6690 H       
  43 H43           -2.7336    -3.0704     6.6862 H       
  44 H44            4.0995     0.6812     0.9216 H       
  45 H45            1.2739     3.8710     0.5034 H       
  46 H46            0.0769     1.6204     0.3231 H       
  47 H47           -6.3131    -4.4419     4.4672 H       
  48 H48           -5.8812    -2.9639     3.5743 H       
  49 H49           -6.8463    -4.2324     2.7820 H       
@<TRIPOS>BOND
   1    1    2 1
   2    1   22 2
   3    1   25 1
   4    2    3 2
   5    2    6 1
   6    3    4 1
   7    4    5 2
   8    4    7 1
   9    5    6 1
  10    7    8 1
  11    7   12 1
  12    7   30 1
  13    8    9 1
  14    8   31 1
  15    8   32 1
  16    9   10 1
  17    9   33 1
  18    9   34 1
  19   10   11 1
  20   10   20 1
  21   10   35 1
  22   11   12 1
  23   11   13 am
  24   12   36 1
  25   12   37 1
  26   13   14 1
  27   13   15 2
  28   14   19 ar
  29   14   18 ar
  30   16   21 ar
  31   16   29 1
  32   16   19 ar
  33   17   18 ar
  34   17   21 ar
  35   17   38 1
  36   18   27 1
  37   19   39 1
  38   20   40 1
  39   20   41 1
  40   20   42 1
  41   21   43 1
  42   22   23 1
  43   22   44 1
  44   23   24 2
  45   23   26 1
  46   24   25 1
  47   24   45 1
  48   25   46 1
  49   27   28 1
  50   28   47 1
  51   28   48 1
  52   28   49 1

#	End of record

