#	Name: ASD00110004
#	Creating user name:	WinNT
#	Creation time:	15. 06. 2019 18:30

#	Modifying user name:	WinNT
#	Modification time:	15. 06. 2019 18:30

#	Program:	/corina/corina34_cracker 3.40 0067  02.08.2006

@<TRIPOS>MOLECULE
ASD00110004
  60   62    0    0    0
SMALL
NO_CHARGES


@<TRIPOS>ATOM
   1 N1            -1.8984     3.0106     1.0597 N.3     
   2 C2            -0.4623     3.2036     1.3045 C.3     
   3 C3             0.3133     2.0101     0.7420 C.3     
   4 N4             0.0393     1.8851    -0.6964 N.3     
   5 C5            -1.3968     1.6921    -0.9412 C.3     
   6 C6            -2.1724     2.8856    -0.3787 C.3     
   7 C7             0.7827     0.8546    -1.2570 C.ar    
   8 C8             0.5960    -0.4538    -0.8292 C.ar    
   9 C9             1.3359    -1.4760    -1.3878 C.ar    
  10 C10            2.2684    -1.2077    -2.3769 C.ar    
  11 C11            2.4673     0.0836    -2.8145 C.ar    
  12 C12            1.7226     1.1289    -2.2630 C.ar    
  13 C13            1.9267     2.5123    -2.7302 C.2     
  14 N14            2.9012     2.7861    -3.6200 N.am    
  15 O15            1.2158     3.4062    -2.3127 O.2     
  16 C16            3.0370     4.1395    -4.1643 C.3     
  17 C17            3.5921     4.0633    -5.5880 C.3     
  18 C18            3.9939     4.9486    -3.2864 C.3     
  19 C19            4.1628     4.2487    -1.9365 C.3     
  20 O20            2.7502     3.2264    -6.3836 O.3     
  21 C21            3.6338     5.4679    -6.1956 C.3     
  22 C22            2.2079     6.0211    -6.2815 C.3     
  23 C23            1.3469     5.0574    -7.1038 C.3     
  24 C24            1.3935     3.6686    -6.4611 C.3     
  25 S25            0.4341     2.5038    -7.4677 S.3     
  26 O26            1.8539     4.9835    -8.4378 O.3     
  27 O27            1.6633     6.1453    -4.9662 O.3     
  28 O28            4.4283     6.3218    -5.3701 O.3     
  29 Cl29           3.3197     6.6005    -3.0267 Cl      
  30 C30            0.3500     1.0284    -6.4156 C.3     
  31 H31           -2.2470     2.2098     1.5651 H       
  32 H32           -0.1293     4.1179     0.8133 H       
  33 H33           -0.2834     3.2807     2.3770 H       
  34 H34            1.3811     2.1648     0.8967 H       
  35 H35           -0.0003     1.0994     1.2524 H       
  36 H36           -1.5757     1.6150    -2.0137 H       
  37 H37           -1.7298     0.7778    -0.4500 H       
  38 H38           -3.2402     2.7309    -0.5334 H       
  39 H39           -1.8588     3.7963    -0.8891 H       
  40 H40           -0.1287    -0.6711    -0.0584 H       
  41 H41            1.1873    -2.4915    -1.0516 H       
  42 H42            2.8427    -2.0150    -2.8069 H       
  43 H43            3.1955     0.2869    -3.5858 H       
  44 H44            3.5127     2.0872    -3.9000 H       
  45 H45            2.0608     4.6243    -4.1803 H       
  46 H46            4.5994     3.6477    -5.5637 H       
  47 H47            4.9628     5.0251    -3.7798 H       
  48 H48            4.5703     3.2500    -2.0935 H       
  49 H49            4.8445     4.8251    -1.3111 H       
  50 H50            3.1938     4.1722    -1.4431 H       
  51 H51            4.0667     5.4199    -7.1947 H       
  52 H52            2.2244     6.9981    -6.7645 H       
  53 H53            0.3174     5.4152    -7.1236 H       
  54 H54            0.9693     3.7178    -5.4583 H       
  55 H55            1.3554     4.3897    -9.0157 H       
  56 H56            0.7359     6.4185    -4.9488 H       
  57 H57            4.4387     7.2458    -5.6551 H       
  58 H58            1.3590     0.6714    -6.2092 H       
  59 H59           -0.1458     1.2788    -5.4778 H       
  60 H60           -0.2136     0.2486    -6.9277 H       
@<TRIPOS>BOND
   1    1    2 1
   2    1    6 1
   3    1   31 1
   4    2    3 1
   5    2   32 1
   6    2   33 1
   7    3    4 1
   8    3   34 1
   9    3   35 1
  10    4    5 1
  11    4    7 1
  12    5    6 1
  13    5   36 1
  14    5   37 1
  15    6   38 1
  16    6   39 1
  17    7    8 ar
  18    7   12 ar
  19    8    9 ar
  20    8   40 1
  21    9   10 ar
  22    9   41 1
  23   10   11 ar
  24   10   42 1
  25   11   12 ar
  26   11   43 1
  27   12   13 1
  28   13   14 am
  29   13   15 2
  30   14   16 1
  31   14   44 1
  32   16   18 1
  33   16   17 1
  34   16   45 1
  35   17   21 1
  36   17   20 1
  37   17   46 1
  38   18   19 1
  39   18   29 1
  40   18   47 1
  41   19   48 1
  42   19   49 1
  43   19   50 1
  44   20   24 1
  45   21   22 1
  46   21   28 1
  47   21   51 1
  48   22   23 1
  49   22   27 1
  50   22   52 1
  51   23   24 1
  52   23   26 1
  53   23   53 1
  54   24   25 1
  55   24   54 1
  56   25   30 1
  57   26   55 1
  58   27   56 1
  59   28   57 1
  60   30   58 1
  61   30   59 1
  62   30   60 1

#	End of record

