#	Name: ASD01910264
#	Creating user name:	WinNT
#	Creation time:	15. 06. 2019 19:55

#	Modifying user name:	WinNT
#	Modification time:	15. 06. 2019 19:55

#	Program:	/corina/corina34_cracker 3.40 0067  02.08.2006

@<TRIPOS>MOLECULE
ASD01910264
  44   47    0    0    0
SMALL
NO_CHARGES


@<TRIPOS>ATOM
   1 C1             0.6232     0.5056     0.4139 C.2     
   2 C2             1.8008     1.4459     0.3994 C.3     
   3 C3             2.1177     1.8455    -1.0435 C.3     
   4 C4             3.3338     2.7744    -1.0620 C.3     
   5 C5             3.0132     4.0446    -0.2679 C.3     
   6 N6             2.5675     3.6607     1.0785 N.am    
   7 C7             1.4628     2.7010     1.2101 C.3     
   8 C8             3.1608     4.1790     2.1720 C.2     
   9 O9             2.7386     3.9071     3.2791 O.2     
  10 N10            0.6126    -0.7206     0.8741 N.2     
  11 C11           -0.6479    -1.1704     0.6801 C.2     
  12 N12           -1.3219    -0.2002     0.1189 N.2     
  13 O13           -0.6080     0.7682    -0.0353 O.3     
  14 C14           -1.1687    -2.5130     1.0370 C.ar    
  15 C15           -2.4977    -2.8395     0.7767 C.ar    
  16 C16           -2.9772    -4.0899     1.1107 C.ar    
  17 C17           -2.1418    -5.0194     1.7037 C.ar    
  18 C18           -0.8214    -4.7031     1.9655 C.ar    
  19 C19           -0.3276    -3.4560     1.6298 C.ar    
  20 C20            4.3241     5.0776     2.0253 C.ar    
  21 C21            4.2628     6.1666     1.1531 C.ar    
  22 C22            5.3512     7.0018     1.0200 C.ar    
  23 C23            6.5054     6.7624     1.7501 C.ar    
  24 C24            6.5718     5.6823     2.6171 C.ar    
  25 C25            5.4871     4.8444     2.7625 C.ar    
  26 F26            7.5693     7.5841     1.6159 F       
  27 F27            0.9625    -3.1470     1.8856 F       
  28 H28            2.6670     0.9510     0.8385 H       
  29 H29            2.3346     0.9517    -1.6286 H       
  30 H30            1.2597     2.3618    -1.4741 H       
  31 H31            4.1858     2.2675    -0.6090 H       
  32 H32            3.5732     3.0399    -2.0918 H       
  33 H33            3.9065     4.6647    -0.1941 H       
  34 H34            2.2211     4.5997    -0.7706 H       
  35 H35            0.5443     3.1465     0.8280 H       
  36 H36            1.3333     2.4346     2.2591 H       
  37 H37           -3.1520    -2.1152     0.3144 H       
  38 H38           -4.0075    -4.3432     0.9089 H       
  39 H39           -2.5225    -5.9961     1.9637 H       
  40 H40           -0.1738    -5.4327     2.4289 H       
  41 H41            3.3644     6.3538     0.5838 H       
  42 H42            5.3049     7.8441     0.3456 H       
  43 H43            7.4734     5.5002     3.1831 H       
  44 H44            5.5397     4.0037     3.4383 H       
@<TRIPOS>BOND
   1    1   10 2
   2    1    2 1
   3    1   13 1
   4    2    3 1
   5    2    7 1
   6    2   28 1
   7    3    4 1
   8    3   29 1
   9    3   30 1
  10    4    5 1
  11    4   31 1
  12    4   32 1
  13    5    6 1
  14    5   33 1
  15    5   34 1
  16    6    7 1
  17    6    8 am
  18    7   35 1
  19    7   36 1
  20    8    9 2
  21    8   20 1
  22   10   11 1
  23   11   12 2
  24   11   14 1
  25   12   13 1
  26   14   15 ar
  27   14   19 ar
  28   15   16 ar
  29   15   37 1
  30   16   17 ar
  31   16   38 1
  32   17   18 ar
  33   17   39 1
  34   18   19 ar
  35   18   40 1
  36   19   27 1
  37   20   21 ar
  38   20   25 ar
  39   21   22 ar
  40   21   41 1
  41   22   23 ar
  42   22   42 1
  43   23   24 ar
  44   23   26 1
  45   24   25 ar
  46   24   43 1
  47   25   44 1

#	End of record

