#	Name: ASD08070657
#	Creating user name:	WinNT
#	Creation time:	15. 06. 2019 21:15

#	Modifying user name:	WinNT
#	Modification time:	15. 06. 2019 21:15

#	Program:	/corina/corina34_cracker 3.40 0067  02.08.2006

@<TRIPOS>MOLECULE
ASD08070657
  46   46    0    0    0
SMALL
NO_CHARGES


@<TRIPOS>ATOM
   1 C1            -0.0180     1.4742     0.0101 C.2     
   2 C2             0.0021    -0.0041     0.0020 C.ar    
   3 C3             1.2186    -0.6886    -0.0133 C.ar    
   4 C4             1.2303    -2.0679    -0.0203 C.ar    
   5 C5             0.0396    -2.7730    -0.0127 C.ar    
   6 C6            -1.1694    -2.1008     0.0024 C.ar    
   7 C7            -1.1950    -0.7213     0.0154 C.ar    
   8 O8             1.0263     2.0963     0.0035 O.2     
   9 N9            -1.1942     2.1322     0.0193 N.am    
  10 C10            1.3652     4.4537    -1.2050 C.3     
  11 C11            0.2626     3.7334    -1.9835 C.3     
  12 C12           -1.1021     4.1165    -1.4074 C.3     
  13 C13           -1.2141     3.5970     0.0274 C.3     
  14 C14           -2.5253     4.0859     0.6459 C.3     
  15 C15           -2.5803     3.6722     2.1179 C.3     
  16 C16           -3.8915     4.1611     2.7364 C.3     
  17 C17            0.3275     4.1425    -3.4563 C.3     
  18 C18            0.0601    -4.2798    -0.0215 C.3     
  19 C19            2.5426    -2.8085    -0.0368 C.3     
  20 H20            2.1485    -0.1394    -0.0199 H       
  21 H21           -2.0951    -2.6570     0.0083 H       
  22 H22           -2.1395    -0.1977     0.0314 H       
  23 H23           -2.0276     1.6358     0.0206 H       
  24 H24            2.3374     4.1808    -1.6154 H       
  25 H25            1.2248     5.5314    -1.2892 H       
  26 H26            1.3190     4.1623    -0.1557 H       
  27 H27            0.4029     2.6557    -1.8992 H       
  28 H28           -1.2060     5.2015    -1.4101 H       
  29 H29           -1.8906     3.6745    -2.0164 H       
  30 H30           -0.3745     3.9686     0.6149 H       
  31 H31           -2.5795     5.1720     0.5714 H       
  32 H32           -3.3662     3.6427     0.1123 H       
  33 H33           -2.5261     2.5861     2.1923 H       
  34 H34           -1.7394     4.1154     2.6514 H       
  35 H35           -3.9307     3.8664     3.7851 H       
  36 H36           -3.9456     5.2472     2.6619 H       
  37 H37           -4.7324     3.7180     2.2028 H       
  38 H38            1.2997     3.8696    -3.8667 H       
  39 H39           -0.4581     3.6293    -4.0109 H       
  40 H40            0.1871     5.2201    -3.5406 H       
  41 H41            0.0750    -4.6490     1.0040 H       
  42 H42           -0.8299    -4.6523    -0.5288 H       
  43 H43            0.9498    -4.6281    -0.5460 H       
  44 H44            2.8690    -2.9923     0.9868 H       
  45 H45            2.4166    -3.7596    -0.5542 H       
  46 H46            3.2914    -2.2095    -0.5550 H       
@<TRIPOS>BOND
   1    1    2 1
   2    1    8 2
   3    1    9 am
   4    2    3 ar
   5    2    7 ar
   6    3    4 ar
   7    3   20 1
   8    4    5 ar
   9    4   19 1
  10    5    6 ar
  11    5   18 1
  12    6    7 ar
  13    6   21 1
  14    7   22 1
  15    9   13 1
  16    9   23 1
  17   10   11 1
  18   10   24 1
  19   10   25 1
  20   10   26 1
  21   11   12 1
  22   11   17 1
  23   11   27 1
  24   12   13 1
  25   12   28 1
  26   12   29 1
  27   13   14 1
  28   13   30 1
  29   14   15 1
  30   14   31 1
  31   14   32 1
  32   15   16 1
  33   15   33 1
  34   15   34 1
  35   16   35 1
  36   16   36 1
  37   16   37 1
  38   17   38 1
  39   17   39 1
  40   17   40 1
  41   18   41 1
  42   18   42 1
  43   18   43 1
  44   19   44 1
  45   19   45 1
  46   19   46 1

#	End of record

