#	Name: ASD07300068
#	Creating user name:	WinNT
#	Creation time:	15. 06. 2019 21:09

#	Modifying user name:	WinNT
#	Modification time:	15. 06. 2019 21:09

#	Program:	/corina/corina34_cracker 3.40 0067  02.08.2006

@<TRIPOS>MOLECULE
ASD07300068
  50   54    0    0    0
SMALL
NO_CHARGES


@<TRIPOS>ATOM
   1 C1            -0.0582     1.3998     0.0469 C.2     
   2 C2            -0.0711    -0.0565    -0.1643 C.2     
   3 C3             1.1772    -0.7237    -0.1456 C.2     
   4 C4             2.2910     0.0222     0.0645 C.2     
   5 N5             2.2055     1.3587     0.2497 N.pl3   
   6 N6             1.0963     2.0012     0.2398 N.2     
   7 O7            -1.1153    -0.6643    -0.3476 O.2     
   8 N8            -2.2418     2.2044    -0.9691 N.pl3   
   9 N9            -3.2769     3.0590    -0.5696 N.2     
  10 C10           -3.0000     3.5277     0.6211 C.2     
  11 C11           -1.7793     2.9973     1.0384 C.2     
  12 C12           -1.3167     2.1728     0.0364 C.2     
  13 C13           -2.1704     1.5032    -2.1794 C.ar    
  14 C14           -3.3021     0.8825    -2.6917 C.ar    
  15 C15           -3.2284     0.1917    -3.8854 C.ar    
  16 C16           -2.0294     0.1178    -4.5703 C.ar    
  17 C17           -0.9006     0.7344    -4.0626 C.ar    
  18 C18           -0.9692     1.4319    -2.8725 C.ar    
  19 C19            3.3873     2.0769     0.4625 C.ar    
  20 C20            3.5210     2.8785     1.5921 C.ar    
  21 C21            4.6892     3.5870     1.8011 C.ar    
  22 C22            5.7281     3.4982     0.8840 C.ar    
  23 C23            5.5936     2.6979    -0.2439 C.ar    
  24 C24            4.4301     1.9855    -0.4510 C.ar    
  25 N25            6.9111     4.2155     1.0955 N.am    
  26 C26            8.0841     4.2117     0.2080 C.3     
  27 F27            2.5095     2.9646     2.4836 F       
  28 C28            9.0785     5.1564     0.9101 C.3     
  29 O29            8.3692     5.5889     2.1071 O.3     
  30 C30            7.1576     5.0223     2.1367 C.2     
  31 O31            6.3572     5.2148     3.0304 O.2     
  32 C32           -3.8581     4.4828     1.4101 C.3     
  33 H33            1.2410    -1.7916    -0.2933 H       
  34 H34            3.2583    -0.4579     0.0843 H       
  35 H35           -1.2856     3.1973     1.9779 H       
  36 H36           -4.2387     0.9395    -2.1571 H       
  37 H37           -4.1081    -0.2916    -4.2842 H       
  38 H38           -1.9743    -0.4230    -5.5036 H       
  39 H39            0.0346     0.6743    -4.5995 H       
  40 H40           -0.0884     1.9174    -2.4789 H       
  41 H41            4.7939     4.2097     2.6773 H       
  42 H42            6.4020     2.6298    -0.9567 H       
  43 H43            4.3285     1.3600    -1.3255 H       
  44 H44            8.5008     3.2077     0.1285 H       
  45 H45            7.8202     4.5970    -0.7769 H       
  46 H46            9.9895     4.6214     1.1783 H       
  47 H47            9.3092     6.0103     0.2732 H       
  48 H48           -4.5566     3.9182     2.0278 H       
  49 H49           -3.2242     5.0984     2.0482 H       
  50 H50           -4.4143     5.1225     0.7248 H       
@<TRIPOS>BOND
   1    1    2 1
   2    1    6 2
   3    1   12 1
   4    2    3 1
   5    2    7 2
   6    3    4 2
   7    3   33 1
   8    4    5 1
   9    4   34 1
  10    5    6 1
  11    5   19 1
  12    8    9 1
  13    8   12 1
  14    8   13 1
  15    9   10 2
  16   10   11 1
  17   10   32 1
  18   11   12 2
  19   11   35 1
  20   13   14 ar
  21   13   18 ar
  22   14   15 ar
  23   14   36 1
  24   15   16 ar
  25   15   37 1
  26   16   17 ar
  27   16   38 1
  28   17   18 ar
  29   17   39 1
  30   18   40 1
  31   19   20 ar
  32   19   24 ar
  33   20   21 ar
  34   20   27 1
  35   21   22 ar
  36   21   41 1
  37   22   23 ar
  38   22   25 1
  39   23   24 ar
  40   23   42 1
  41   24   43 1
  42   25   26 1
  43   25   30 am
  44   26   28 1
  45   26   44 1
  46   26   45 1
  47   28   29 1
  48   28   46 1
  49   28   47 1
  50   29   30 1
  51   30   31 2
  52   32   48 1
  53   32   49 1
  54   32   50 1

#	End of record

