#	Name: ASD01910474
#	Creating user name:	WinNT
#	Creation time:	15. 06. 2019 19:55

#	Modifying user name:	WinNT
#	Modification time:	15. 06. 2019 19:55

#	Program:	/corina/corina34_cracker 3.40 0067  02.08.2006

@<TRIPOS>MOLECULE
ASD01910474
  40   43    0    0    0
SMALL
NO_CHARGES


@<TRIPOS>ATOM
   1 C1            -0.8519     1.9316     1.0573 C.2     
   2 C2            -0.8687     0.4953     0.6911 C.2     
   3 N3            -1.8826    -0.3753     0.9006 N.2     
   4 C4            -1.4661    -1.5217     0.4236 C.2     
   5 O5            -0.2336    -1.3250    -0.0550 O.3     
   6 N6             0.0925    -0.1670     0.0994 N.2     
   7 C7            -2.2323    -2.8193     0.4164 C.3     
   8 C8            -2.4168    -3.2956    -1.0263 C.3     
   9 C9            -3.2232    -4.5963    -1.0367 C.3     
  10 C10           -2.4552    -5.6747    -0.2660 C.3     
  11 N11           -2.1468    -5.1666     1.0777 N.am    
  12 C12           -1.4531    -3.8776     1.2036 C.3     
  13 C13           -2.4938    -5.8696     2.1740 C.2     
  14 C14           -3.2644    -7.1223     2.0349 C.ar    
  15 O15           -2.1727    -5.4728     3.2774 O.2     
  16 C16           -2.8381    -8.1119     1.1472 C.ar    
  17 C17           -3.5603    -9.2796     1.0203 C.ar    
  18 C18           -4.7085    -9.4729     1.7717 C.ar    
  19 C19           -5.1383    -8.4924     2.6563 C.ar    
  20 C20           -4.4187    -7.3229     2.7953 C.ar    
  21 F21           -5.4123   -10.6189     1.6429 F       
  22 C22            0.2012     2.7392     0.8146 C.2     
  23 S23           -0.2040     4.3483     1.4064 S.3     
  24 C24           -1.7354     3.7887     1.9189 C.2     
  25 N25           -1.8727     2.5378     1.6473 N.2     
  26 F26           -6.2587    -8.6861     3.3859 F       
  27 H27           -3.2084    -2.6680     0.8772 H       
  28 H28           -2.9496    -2.5335    -1.5950 H       
  29 H29           -1.4406    -3.4699    -1.4788 H       
  30 H30           -4.1900    -4.4288    -0.5620 H       
  31 H31           -3.3742    -4.9225    -2.0657 H       
  32 H32           -3.0679    -6.5726    -0.1854 H       
  33 H33           -1.5283    -5.9082    -0.7899 H       
  34 H34           -0.4445    -3.9645     0.7995 H       
  35 H35           -1.4046    -3.5897     2.2537 H       
  36 H36           -1.9439    -7.9628     0.5602 H       
  37 H37           -3.2306   -10.0452     0.3336 H       
  38 H38           -4.7527    -6.5605     3.4835 H       
  39 H39            1.1284     2.4503     0.3420 H       
  40 H40           -2.4847     4.3999     2.4000 H       
@<TRIPOS>BOND
   1    1    2 1
   2    1   22 2
   3    1   25 1
   4    2    3 1
   5    2    6 2
   6    3    4 2
   7    4    5 1
   8    4    7 1
   9    5    6 1
  10    7    8 1
  11    7   12 1
  12    7   27 1
  13    8    9 1
  14    8   28 1
  15    8   29 1
  16    9   10 1
  17    9   30 1
  18    9   31 1
  19   10   11 1
  20   10   32 1
  21   10   33 1
  22   11   12 1
  23   11   13 am
  24   12   34 1
  25   12   35 1
  26   13   14 1
  27   13   15 2
  28   14   16 ar
  29   14   20 ar
  30   16   17 ar
  31   16   36 1
  32   17   18 ar
  33   17   37 1
  34   18   19 ar
  35   18   21 1
  36   19   20 ar
  37   19   26 1
  38   20   38 1
  39   22   23 1
  40   22   39 1
  41   23   24 1
  42   24   25 2
  43   24   40 1

#	End of record

