#	Name: ASD05740126
#	Creating user name:	WinNT
#	Creation time:	15. 06. 2019 21:02

#	Modifying user name:	WinNT
#	Modification time:	15. 06. 2019 21:02

#	Program:	/corina/corina34_cracker 3.40 0067  02.08.2006

@<TRIPOS>MOLECULE
ASD05740126
  50   51    0    0    0
SMALL
NO_CHARGES


@<TRIPOS>ATOM
   1 C1            -0.0167     1.3816     0.0096 C.2     
   2 C2            -3.1859     0.8575     1.3396 C.3     
   3 C3            -2.9417    -0.5997     3.3903 C.2     
   4 C4            -2.3772    -1.6818     4.0490 C.2     
   5 C5            -2.5762    -0.3163     2.0618 C.2     
   6 C6            -1.6645    -1.1145     1.4322 C.2     
   7 C7            -1.1121    -2.2001     2.1245 C.2     
   8 O8            -1.4692    -2.4585     3.3895 O.3     
   9 C9            -1.2577    -0.8312     0.0091 C.3     
  10 C10            0.0021    -0.0041     0.0020 C.2     
  11 C11            1.2171    -0.5503    -0.0125 C.2     
  12 O12           -0.2974    -2.9181     1.5691 O.2     
  13 C13            1.1936     1.9589     0.0012 C.2     
  14 S14            2.4377     0.7158    -0.0174 S.3     
  15 N15            1.4298     3.3349     0.0056 N.am    
  16 S16            2.5790     3.9745     1.0119 S.o2    
  17 O17            2.5218     5.3728     0.7652 O.2     
  18 O18            2.2606     3.4425     2.2905 O.2     
  19 C19           -2.8407    -1.8264     5.3508 C.2     
  20 C20           -3.7387    -0.9187     5.7542 C.2     
  21 S21           -4.0750     0.2193     4.4602 S.3     
  22 O22           -4.3099    -0.8864     6.9827 O.3     
  23 C23           -5.2501     0.1601     7.2337 C.3     
  24 C24            4.1443     3.2851     0.4074 C.3     
  25 C25            5.2973     3.8079     1.2665 C.3     
  26 O26            6.5304     3.2648     0.7904 O.3     
  27 H27           -0.9340     1.9517     0.0172 H       
  28 H28           -3.8849     1.3683     2.0018 H       
  29 H29           -2.3981     1.5487     1.0400 H       
  30 H30           -3.7155     0.5045     0.4548 H       
  31 H31           -1.0777    -1.7718    -0.5114 H       
  32 H32           -2.0545    -0.2839    -0.4945 H       
  33 H33            1.4217    -1.6107    -0.0196 H       
  34 H34            0.9208     3.9163    -0.5807 H       
  35 H35           -2.4985    -2.6214     5.9968 H       
  36 H36           -4.7594     1.1259     7.1133 H       
  37 H37           -6.0772     0.0823     6.5281 H       
  38 H38           -5.6307     0.0703     8.2511 H       
  39 H39            4.1098     2.1973     0.4685 H       
  40 H40            4.2978     3.5861    -0.6289 H       
  41 H41            5.3318     4.8956     1.2054 H       
  42 H42            5.1438     3.5068     2.3028 H       
  43 H43            7.3064     3.5541     1.2895 H       
  44 C44           12.8336    13.0421    15.1194 C.3     
  45 N45           12.8534    11.5773    15.1113 N.2     
  46 C46           13.3942    10.9647    14.1653 C.1     
  47 O47           13.9167    10.3728    13.2511 O.2     
  48 H48           13.8562    13.4194    15.1117 H       
  49 H49           12.3064    13.4032    14.2363 H       
  50 H50           12.3234    13.3936    16.0162 H       
@<TRIPOS>BOND
   1    1   10 1
   2    1   13 2
   3    1   27 1
   4    2    5 1
   5    2   28 1
   6    2   29 1
   7    2   30 1
   8    3    4 2
   9    3    5 1
  10    3   21 1
  11    4   19 1
  12    4    8 1
  13    5    6 2
  14    6    7 1
  15    6    9 1
  16    7    8 1
  17    7   12 2
  18    9   10 1
  19    9   31 1
  20    9   32 1
  21   10   11 2
  22   11   14 1
  23   11   33 1
  24   13   14 1
  25   13   15 1
  26   15   16 am
  27   15   34 1
  28   16   17 2
  29   16   18 2
  30   16   24 1
  31   19   20 2
  32   19   35 1
  33   20   21 1
  34   20   22 1
  35   22   23 1
  36   23   36 1
  37   23   37 1
  38   23   38 1
  39   24   25 1
  40   24   39 1
  41   24   40 1
  42   25   26 1
  43   25   41 1
  44   25   42 1
  45   26   43 1
  46   44   45 1
  47   44   48 1
  48   44   49 1
  49   44   50 1
  50   45   46 2
  51   46   47 2

#	End of record

