#	Name: ASD01820079
#	Creating user name:	WinNT
#	Creation time:	15. 06. 2019 19:36

#	Modifying user name:	WinNT
#	Modification time:	15. 06. 2019 19:36

#	Program:	/corina/corina34_cracker 3.40 0067  02.08.2006

@<TRIPOS>MOLECULE
ASD01820079
  47   53    0    0    0
SMALL
NO_CHARGES


@<TRIPOS>ATOM
   1 C1            -0.0185     1.5101     0.0103 C.3     
   2 N2            -0.7858     1.8987    -1.2115 N.am    
   3 C3            -1.0289     3.2070    -1.4323 C.2     
   4 C4            -0.7691     4.2165    -0.3504 C.3     
   5 C5            -0.8008     3.6483     1.0664 C.3     
   6 C6            -0.8715     2.1452     1.0951 C.3     
   7 C7            -1.2764     0.7672    -1.8209 C.ar    
   8 C8            -0.8889    -0.3957    -1.1438 C.ar    
   9 C9            -1.2893    -1.6524    -1.5542 C.ar    
  10 C10           -2.0885    -1.7259    -2.6888 C.ar    
  11 C11           -2.4636    -0.5897    -3.3754 C.ar    
  12 C12           -2.0742     0.6750    -2.9672 C.ar    
  13 C13           -0.2831    -0.6903     1.3509 C.3     
  14 C14           -0.7994     1.4641     2.4303 C.3     
  15 C15           -1.2919     0.0200     2.2288 C.3     
  16 C16            1.9130    -1.2458     0.9358 C.3     
  17 C17            1.4251    -0.5253    -0.3314 C.3     
  18 C18            0.0021    -0.0041     0.0020 C.3     
  19 N19            0.9795    -0.9136     2.0692 N.3     
  20 C20            0.6193     1.4190     2.9311 C.2     
  21 C21            1.1345     2.5500     3.3555 C.2     
  22 C22            0.3686     3.8312     3.1719 C.3     
  23 O23            0.3567     4.1066     1.7726 O.3     
  24 C24            1.4879     0.2182     2.8253 C.3     
  25 O25           -1.4579     3.5694    -2.5073 O.2     
  26 H26           -1.6783     4.0481     1.5745 H       
  27 H27           -1.8813     1.9232     0.7497 H       
  28 H28           -0.6935    -1.6687     1.1011 H       
  29 H29           -1.4397     1.9795     3.1462 H       
  30 H30            0.9906     1.9221     0.0029 H       
  31 H31            0.2106     4.6624    -0.5220 H       
  32 H32           -1.5202     5.0029    -0.4241 H       
  33 H33           -0.9934    -2.5408    -1.0160 H       
  34 H34           -2.4220    -2.6912    -3.0400 H       
  35 H35           -3.0794    -0.6894    -4.2570 H       
  36 H36           -2.3743     1.5571    -3.5133 H       
  37 H37           -2.2762    -0.0123     1.7616 H       
  38 H38           -1.3308    -0.4573     3.2080 H       
  39 H39            1.9601    -2.3203     0.7587 H       
  40 H40            2.8959    -0.8715     1.2220 H       
  41 H41            2.1146     0.2758    -0.5979 H       
  42 H42            1.3334    -1.2333    -1.1551 H       
  43 H43            2.1030     2.5601     3.8335 H       
  44 H44           -0.6503     3.7079     3.5389 H       
  45 H45            0.8622     4.6374     3.7146 H       
  46 H46            1.7057    -0.1264     3.8362 H       
  47 H47            2.4300     0.5264     2.3719 H       
@<TRIPOS>BOND
   1    1   18 1
   2    1   30 1
   3    1    2 1
   4    1    6 1
   5    2    3 am
   6    2    7 1
   7    3    4 1
   8    3   25 2
   9    4    5 1
  10    4   31 1
  11    4   32 1
  12    5    6 1
  13    5   23 1
  14    5   26 1
  15    6   27 1
  16    6   14 1
  17    7    8 ar
  18    7   12 ar
  19    8    9 ar
  20    8   18 1
  21    9   10 ar
  22    9   33 1
  23   10   11 ar
  24   10   34 1
  25   11   12 ar
  26   11   35 1
  27   12   36 1
  28   13   15 1
  29   13   19 1
  30   13   28 1
  31   13   18 1
  32   14   15 1
  33   14   20 1
  34   14   29 1
  35   15   37 1
  36   15   38 1
  37   16   17 1
  38   16   19 1
  39   16   39 1
  40   16   40 1
  41   17   18 1
  42   17   41 1
  43   17   42 1
  44   19   24 1
  45   20   21 2
  46   20   24 1
  47   21   22 1
  48   21   43 1
  49   22   23 1
  50   22   44 1
  51   22   45 1
  52   24   46 1
  53   24   47 1

#	End of record

