#	Name: ASD01140230
#	Creating user name:	WinNT
#	Creation time:	15. 06. 2019 19:00

#	Modifying user name:	WinNT
#	Modification time:	15. 06. 2019 19:00

#	Program:	/corina/corina34_cracker 3.40 0067  02.08.2006

@<TRIPOS>MOLECULE
ASD01140230
  79   86    0    0    0
SMALL
NO_CHARGES


@<TRIPOS>ATOM
   1 C1             0.5722     0.7501    -3.2633 C.2     
   2 C2             0.5921    -0.5759    -3.5597 C.2     
   3 S3             2.2396    -1.0912    -3.8786 S.3     
   4 C4             2.8560     0.5320    -3.5775 C.2     
   5 C5             1.8034     1.3781    -3.2800 C.2     
   6 C6             4.2732     0.9016    -3.6134 C.2     
   7 N7             4.7563     2.0191    -4.0625 N.2     
   8 C8             3.9092     3.0379    -4.6874 C.3     
   9 C9             2.9027     3.5281    -3.6809 C.2     
  10 N10            1.9715     2.7635    -3.0598 N.pl3   
  11 C11           -0.5592    -1.4263    -3.6045 C.1     
  12 C12            1.2620     3.5605    -2.2246 C.2     
  13 C13            2.7435     4.7985    -3.2167 C.2     
  14 N14            1.7216     4.7778    -2.3188 N.2     
  15 C15            0.5197    13.3536    -7.0780 C.2     
  16 N16            0.4445    12.9138    -8.3633 N.2     
  17 C17           -0.4700    14.2733    -6.9048 C.2     
  18 N18           -1.1239    14.3739    -8.0868 N.pl3   
  19 C19           -0.5388    13.5242    -8.9655 C.2     
  20 C20           -0.7979    15.0426    -5.6528 C.3     
  21 N21           -2.1655    14.7234    -5.2370 N.2     
  22 C22           -3.1934    14.9876    -5.9857 C.2     
  23 C23           -3.1499    15.5449    -7.3401 C.2     
  24 C24           -2.2212    15.2329    -8.3160 C.2     
  25 S25           -4.2968    16.7235    -7.9730 S.3     
  26 C26           -3.5179    16.7064    -9.5460 C.2     
  27 C27           -2.4525    15.8632    -9.5246 C.2     
  28 C28           -3.9420    17.4675   -10.6824 C.1     
  29 C29            3.3375    11.5979    -5.3184 C.3     
  30 C30           -1.5030    -2.1234    -3.6412 C.1     
  31 C31           -4.2897    18.0916   -11.6141 C.1     
  32 C32            4.0816     8.2976    -3.5070 C.3     
  33 C33           -4.5315    14.6989    -5.4189 C.ar    
  34 C34           -4.6570    14.2932    -4.0883 C.ar    
  35 C35           -5.9093    14.0255    -3.5665 C.ar    
  36 C36           -7.0339    14.1591    -4.3594 C.ar    
  37 C37           -6.9145    14.5608    -5.6783 C.ar    
  38 C38           -5.6717    14.8366    -6.2098 C.ar    
  39 C39            5.2419    -0.0895    -3.0895 C.ar    
  40 C40            4.7874    -1.2553    -2.4740 C.ar    
  41 C41            5.6939    -2.1748    -1.9885 C.ar    
  42 C42            7.0529    -1.9434    -2.1101 C.ar    
  43 C43            7.5123    -0.7901    -2.7184 C.ar    
  44 C44            6.6144     0.1370    -3.2151 C.ar    
  45 F45           -3.5581    14.1622    -3.3134 F       
  46 F46            7.0634     1.2640    -3.8096 F       
  47 O47            3.6815     8.6953    -4.8199 O.3     
  48 C48            2.4501     9.4195    -4.8580 C.3     
  49 O49            2.6654    10.7505    -4.3845 O.3     
  50 C50            1.4875    12.9126    -6.0611 C.2     
  51 O51            2.4154    11.9853    -6.3710 O.3     
  52 O52            1.4501    13.3844    -4.9415 O.2     
  53 C53            3.5318     5.9762    -3.6128 C.2     
  54 O54            3.2639     7.1804    -3.0694 O.3     
  55 O55            4.4245     5.8632    -4.4300 O.2     
  56 H56           -0.3422     1.2774    -3.0350 H       
  57 H57            4.5274     3.8717    -5.0201 H       
  58 H58            3.3889     2.6051    -5.5418 H       
  59 H59            0.4511     3.2411    -1.5867 H       
  60 H60           -0.8365    13.3773    -9.9932 H       
  61 H61           -0.1021    14.7641    -4.8613 H       
  62 H62           -0.7174    16.1115    -5.8505 H       
  63 H63           -1.8297    15.6973   -10.3912 H       
  64 H64            3.6987    12.4894    -4.8055 H       
  65 H65            4.1812    11.0622    -5.7535 H       
  66 H66           -2.3472    -2.7470    -3.6741 H       
  67 H67           -4.6007    18.6497   -12.4473 H       
  68 H68            5.1293     7.9973    -3.5218 H       
  69 H69            3.9529     9.1334    -2.8192 H       
  70 H70           -6.0090    13.7112    -2.5380 H       
  71 H71           -8.0100    13.9486    -3.9479 H       
  72 H72           -7.7973    14.6631    -6.2921 H       
  73 H73           -5.5811    15.1499    -7.2394 H       
  74 H74            3.7273    -1.4379    -2.3773 H       
  75 H75            5.3421    -3.0778    -1.5117 H       
  76 H76            7.7578    -2.6668    -1.7276 H       
  77 H77            8.5741    -0.6150    -2.8100 H       
  78 H78            2.0803     9.4537    -5.8827 H       
  79 H79            1.7165     8.9223    -4.2233 H       
@<TRIPOS>BOND
   1    1    2 2
   2    1    5 1
   3    1   56 1
   4    2    3 1
   5    2   11 1
   6    3    4 1
   7    4    5 2
   8    4    6 1
   9    5   10 1
  10    6    7 2
  11    6   39 1
  12    7    8 1
  13    8    9 1
  14    8   57 1
  15    8   58 1
  16    9   10 1
  17    9   13 2
  18   10   12 1
  19   11   30 3
  20   12   14 2
  21   12   59 1
  22   13   14 1
  23   13   53 1
  24   15   16 1
  25   15   17 2
  26   15   50 1
  27   16   19 2
  28   17   18 1
  29   17   20 1
  30   18   19 1
  31   18   24 1
  32   19   60 1
  33   20   21 1
  34   20   61 1
  35   20   62 1
  36   21   22 2
  37   22   23 1
  38   22   33 1
  39   23   24 2
  40   23   25 1
  41   24   27 1
  42   25   26 1
  43   26   27 2
  44   26   28 1
  45   27   63 1
  46   28   31 3
  47   29   51 1
  48   29   49 1
  49   29   64 1
  50   29   65 1
  51   30   66 1
  52   31   67 1
  53   32   47 1
  54   32   54 1
  55   32   68 1
  56   32   69 1
  57   33   34 ar
  58   33   38 ar
  59   34   35 ar
  60   34   45 1
  61   35   36 ar
  62   35   70 1
  63   36   37 ar
  64   36   71 1
  65   37   38 ar
  66   37   72 1
  67   38   73 1
  68   39   40 ar
  69   39   44 ar
  70   40   41 ar
  71   40   74 1
  72   41   42 ar
  73   41   75 1
  74   42   43 ar
  75   42   76 1
  76   43   44 ar
  77   43   77 1
  78   44   46 1
  79   47   48 1
  80   48   49 1
  81   48   78 1
  82   48   79 1
  83   50   51 1
  84   50   52 2
  85   53   54 1
  86   53   55 2

#	End of record

