#	Name: ASD03330782
#	Creating user name:	WinNT
#	Creation time:	15. 06. 2019 20:37

#	Modifying user name:	WinNT
#	Modification time:	15. 06. 2019 20:37

#	Program:	/corina/corina34_cracker 3.40 0067  02.08.2006

@<TRIPOS>MOLECULE
ASD03330782
  57   59    0    0    0
SMALL
NO_CHARGES


@<TRIPOS>ATOM
   1 C1            -0.0160     1.3550     0.0390 C.2     
   2 N2             0.0041    -0.0047     0.0499 N.pl3   
   3 C3             1.2778     1.7739    -0.0299 C.2     
   4 N4             2.0648     0.6764    -0.0775 N.2     
   5 C5             1.3084    -0.3957    -0.0359 C.2     
   6 C6             1.7896    -1.7933    -0.0759 C.ar    
   7 C7             1.7375     3.1737    -0.0499 C.2     
   8 O8             0.9281     4.0803    -0.0026 O.2     
   9 C9             3.5119     4.8412    -0.1406 C.3     
  10 N10            3.0549     3.4495    -0.1207 N.am    
  11 C11            4.8779     4.9197    -0.8252 C.3     
  12 C12            3.6281     5.3520     1.2724 C.2     
  13 O13            3.3560     4.6251     2.2043 O.2     
  14 C14           -1.1734    -0.8712     0.1510 C.3     
  15 C15           -2.2417    -0.3837    -0.8327 C.3     
  16 C16           -3.1085     0.6805    -0.1673 C.3     
  17 N17           -2.3248     1.4886     0.7690 N.3     
  18 C18           -1.2510     2.2171     0.0773 C.3     
  19 C19            1.3011    -2.7285     0.8377 C.ar    
  20 C20            2.7305    -2.1838    -1.0321 C.ar    
  21 C21            3.1768    -3.4915    -1.0649 C.ar    
  22 C22            1.7537    -4.0321     0.7960 C.ar    
  23 C23           -3.1882     2.4107     1.5190 C.3     
  24 N24            4.0345     6.6166     1.5006 N.am    
  25 C25            4.7355     4.5194    -2.2950 C.3     
  26 C26            3.8600     5.5435    -3.0200 C.3     
  27 C27            6.1183     4.4771    -2.9484 C.3     
  28 C28            2.6927    -4.4137    -0.1527 C.ar    
  29 F29            3.2029    -1.2849    -1.9232 F       
  30 F30            1.2816    -4.9383     1.6799 F       
  31 F31            3.1318    -5.6908    -0.1893 F       
  32 H32            2.7947     5.4513    -0.6896 H       
  33 H33            3.7004     2.7264    -0.1584 H       
  34 H34            5.2583     5.9392    -0.7615 H       
  35 H35            5.5723     4.2412    -0.3295 H       
  36 H36           -0.8937    -1.8960    -0.0932 H       
  37 H37           -1.5682    -0.8323     1.1663 H       
  38 H38           -1.7578     0.0410    -1.7123 H       
  39 H39           -2.8671    -1.2239    -1.1344 H       
  40 H40           -3.5296     1.3300    -0.9347 H       
  41 H41           -3.9204     0.1938     0.3731 H       
  42 H42           -1.0339     3.1413     0.6128 H       
  43 H43           -1.5650     2.4494    -0.9403 H       
  44 H44            0.5706    -2.4329     1.5762 H       
  45 H45            3.9041    -3.7945    -1.8035 H       
  46 H46           -3.9262     1.8400     2.0827 H       
  47 H47           -2.5808     2.9987     2.2070 H       
  48 H48           -3.6982     3.0775     0.8237 H       
  49 H49            4.2522     7.1980     0.7552 H       
  50 H50            4.1093     6.9454     2.4101 H       
  51 H51            4.2726     3.5347    -2.3602 H       
  52 H52            3.7585     5.2583    -4.0671 H       
  53 H53            2.8748     5.5736    -2.5545 H       
  54 H54            4.3229     6.5282    -2.9548 H       
  55 H55            6.7420     3.7475    -2.4320 H       
  56 H56            6.0168     4.1919    -3.9956 H       
  57 H57            6.5812     5.4618    -2.8832 H       
@<TRIPOS>BOND
   1    1    2 1
   2    1    3 2
   3    1   18 1
   4    2   14 1
   5    2    5 1
   6    3    4 1
   7    3    7 1
   8    4    5 2
   9    5    6 1
  10    6   20 ar
  11    6   19 ar
  12    7    8 2
  13    7   10 am
  14    9   10 1
  15    9   11 1
  16    9   12 1
  17    9   32 1
  18   10   33 1
  19   11   25 1
  20   11   34 1
  21   11   35 1
  22   12   13 2
  23   12   24 am
  24   14   15 1
  25   14   36 1
  26   14   37 1
  27   15   16 1
  28   15   38 1
  29   15   39 1
  30   16   17 1
  31   16   40 1
  32   16   41 1
  33   17   18 1
  34   17   23 1
  35   18   42 1
  36   18   43 1
  37   19   22 ar
  38   19   44 1
  39   20   21 ar
  40   20   29 1
  41   21   28 ar
  42   21   45 1
  43   22   30 1
  44   22   28 ar
  45   23   46 1
  46   23   47 1
  47   23   48 1
  48   24   49 1
  49   24   50 1
  50   25   27 1
  51   25   26 1
  52   25   51 1
  53   26   52 1
  54   26   53 1
  55   26   54 1
  56   27   55 1
  57   27   56 1
  58   27   57 1
  59   28   31 1

#	End of record

