#	Name: ASD06350014
#	Creating user name:	WinNT
#	Creation time:	15. 06. 2019 21:06

#	Modifying user name:	WinNT
#	Modification time:	15. 06. 2019 21:06

#	Program:	/corina/corina34_cracker 3.40 0067  02.08.2006

@<TRIPOS>MOLECULE
ASD06350014
  29   30    0    0    0
SMALL
NO_CHARGES


@<TRIPOS>ATOM
   1 C1            -0.0173     1.4248     0.0099 C.3     
   2 O2             0.0021    -0.0041     0.0020 O.3     
   3 C3             0.6259    -0.6185     1.0417 C.ar    
   4 C4             0.6813    -2.0037     1.0961 C.ar    
   5 C5             1.3147    -2.6298     2.1516 C.ar    
   6 C6             1.8967    -1.8733     3.1593 C.ar    
   7 C7             1.8414    -0.4843     3.1052 C.ar    
   8 C8             1.2118     0.1402     2.0449 C.ar    
   9 F9             2.4069     0.2536     4.0854 F       
  10 N10            2.5392    -2.5084     4.2310 N.am    
  11 C11            3.8610    -2.7938     4.1414 C.2     
  12 C12            4.5192    -3.4083     5.1581 C.2     
  13 C13            3.8373    -3.7591     6.3223 C.2     
  14 C14            2.4767    -3.4685     6.4216 C.2     
  15 C15            1.8345    -2.8202     5.3352 C.2     
  16 O16            0.6464    -2.5549     5.3974 O.2     
  17 C17            1.7231    -3.8223     7.6321 C.2     
  18 O18            2.2852    -4.3734     8.5586 O.2     
  19 O19            0.4083    -3.5358     7.7155 O.3     
  20 H20            1.0053     1.8021     0.0021 H       
  21 H21           -0.5445     1.7859    -0.8732 H       
  22 H22           -0.5275     1.7763     0.9067 H       
  23 H23            0.2284    -2.5929     0.3125 H       
  24 H24            1.3569    -3.7082     2.1931 H       
  25 H25            1.1686     1.2185     2.0016 H       
  26 H26            4.4010    -2.5280     3.2446 H       
  27 H27            5.5729    -3.6259     5.0644 H       
  28 H28            4.3543    -4.2486     7.1344 H       
  29 H29           -0.0450    -3.7879     8.5316 H       
@<TRIPOS>BOND
   1    1    2 1
   2    1   20 1
   3    1   21 1
   4    1   22 1
   5    2    3 1
   6    3    4 ar
   7    3    8 ar
   8    4    5 ar
   9    4   23 1
  10    5    6 ar
  11    5   24 1
  12    6    7 ar
  13    6   10 1
  14    7    8 ar
  15    7    9 1
  16    8   25 1
  17   10   11 1
  18   10   15 am
  19   11   12 2
  20   11   26 1
  21   12   13 1
  22   12   27 1
  23   13   14 2
  24   13   28 1
  25   14   15 1
  26   14   17 1
  27   15   16 2
  28   17   18 2
  29   17   19 1
  30   19   29 1

#	End of record

