#	Name: ASD01914483
#	Creating user name:	WinNT
#	Creation time:	15. 06. 2019 20:03

#	Modifying user name:	WinNT
#	Modification time:	15. 06. 2019 20:03

#	Program:	/corina/corina34_cracker 3.40 0067  02.08.2006

@<TRIPOS>MOLECULE
ASD01914483
  62   68    0    0    0
SMALL
NO_CHARGES


@<TRIPOS>ATOM
   1 C1            -0.0187     1.5258     0.0104 C.3     
   2 C2             0.0021    -0.0041     0.0020 C.3     
   3 C3             0.7182    -0.4975    -1.2568 C.3     
   4 C4            -0.0218     0.0093    -2.4963 C.3     
   5 C5            -0.0425     1.5392    -2.4879 C.3     
   6 C6             1.3929     2.0688    -2.4988 C.3     
   7 C7             2.1328     1.5619    -1.2592 C.3     
   8 C8             1.4167     2.0553    -0.0004 C.3     
   9 C9             2.1536     0.0321    -1.2676 C.3     
  10 C10           -0.7587     2.0326    -1.2291 C.3     
  11 N11           -2.0176     2.9237     3.5236 N.ar    
  12 C12           -1.5373     3.7984     2.6570 C.ar    
  13 C13           -1.6789     5.1786     2.8832 C.ar    
  14 N14           -2.2899     5.6199     3.9578 N.ar    
  15 C15           -2.7829     4.7501     4.8469 C.ar    
  16 C16           -3.4418     5.1947     6.0055 C.ar    
  17 C17           -3.9340     4.2875     6.8928 C.ar    
  18 C18           -3.7950     2.9178     6.6717 C.ar    
  19 C19           -3.1632     2.4482     5.5625 C.ar    
  20 C20           -2.6411     3.3550     4.6206 C.ar    
  21 C21           -0.8434     3.3203     1.4375 C.2     
  22 O22           -0.4001     4.1204     0.6377 O.2     
  23 N23           -0.7044     1.9982     1.2158 N.am    
  24 N24            0.7859    -4.7737    -1.2975 N.ar    
  25 C25            1.3412    -4.1049    -2.2930 C.ar    
  26 C26            1.9503    -4.7883    -3.3598 C.ar    
  27 N27            1.9771    -6.1004    -3.3838 N.ar    
  28 C28            1.4203    -6.7953    -2.3852 C.ar    
  29 C29            1.4348    -8.2002    -2.3852 C.ar    
  30 C30            0.8612    -8.8817    -1.3560 C.ar    
  31 C31            0.2559    -8.2069    -0.2965 C.ar    
  32 C32            0.2210    -6.8476    -0.2606 C.ar    
  33 C33            0.8042    -6.1070    -1.3062 C.ar    
  34 C34            1.3211    -2.6228    -2.2848 C.2     
  35 O35            1.8302    -2.0032    -3.1977 O.2     
  36 N36            0.7381    -1.9623    -1.2648 N.am    
  37 H37            0.5293    -0.3651     0.8851 H       
  38 H38           -1.0205    -0.3814     0.0098 H       
  39 H39            0.4884    -0.3422    -3.3931 H       
  40 H40           -1.0444    -0.3679    -2.4886 H       
  41 H41           -0.5697     1.9003    -3.3710 H       
  42 H42            1.9030     1.7172    -3.3956 H       
  43 H43            1.3781     3.1587    -2.4928 H       
  44 H44            3.1554     1.9392    -1.2670 H       
  45 H45            1.4019     3.1452     0.0056 H       
  46 H46            1.9439     1.6943     0.8826 H       
  47 H47            2.6808    -0.3290    -0.3846 H       
  48 H48            2.6638    -0.3194    -2.1644 H       
  49 H49           -1.7813     1.6553    -1.2214 H       
  50 H50           -0.7734     3.1225    -1.2231 H       
  51 H51           -1.2812     5.8820     2.1667 H       
  52 H52           -3.5569     6.2523     6.1915 H       
  53 H53           -4.4397     4.6339     7.7820 H       
  54 H54           -4.1946     2.2194     7.3921 H       
  55 H55           -3.0624     1.3845     5.4050 H       
  56 H56           -1.0583     1.3595     1.8542 H       
  57 H57            2.4000    -4.2289    -4.1668 H       
  58 H58            1.8991    -8.7375    -3.1990 H       
  59 H59            0.8747    -9.9616    -1.3602 H       
  60 H60           -0.1922    -8.7720     0.5074 H       
  61 H61           -0.2521    -6.3388     0.5663 H       
  62 H62            0.3316    -2.4569    -0.5361 H       
@<TRIPOS>BOND
   1    1    2 1
   2    1    8 1
   3    1   10 1
   4    1   23 1
   5    2    3 1
   6    2   37 1
   7    2   38 1
   8    3    4 1
   9    3    9 1
  10    3   36 1
  11    4    5 1
  12    4   39 1
  13    4   40 1
  14    5    6 1
  15    5   10 1
  16    5   41 1
  17    6    7 1
  18    6   42 1
  19    6   43 1
  20    7    8 1
  21    7    9 1
  22    7   44 1
  23    8   45 1
  24    8   46 1
  25    9   47 1
  26    9   48 1
  27   10   49 1
  28   10   50 1
  29   11   12 ar
  30   11   20 ar
  31   12   13 ar
  32   12   21 1
  33   13   14 ar
  34   13   51 1
  35   14   15 ar
  36   15   16 ar
  37   15   20 ar
  38   16   17 ar
  39   16   52 1
  40   17   18 ar
  41   17   53 1
  42   18   19 ar
  43   18   54 1
  44   19   20 ar
  45   19   55 1
  46   21   22 2
  47   21   23 am
  48   23   56 1
  49   24   25 ar
  50   24   33 ar
  51   25   26 ar
  52   25   34 1
  53   26   27 ar
  54   26   57 1
  55   27   28 ar
  56   28   29 ar
  57   28   33 ar
  58   29   30 ar
  59   29   58 1
  60   30   31 ar
  61   30   59 1
  62   31   32 ar
  63   31   60 1
  64   32   33 ar
  65   32   61 1
  66   34   35 2
  67   34   36 am
  68   36   62 1

#	End of record

