#	Name: ASD08178441
#	Creating user name:	WinNT
#	Creation time:	15. 06. 2019 21:18

#	Modifying user name:	WinNT
#	Modification time:	15. 06. 2019 21:18

#	Program:	/corina/corina34_cracker 3.40 0067  02.08.2006

@<TRIPOS>MOLECULE
ASD08178441
  68   71    0    0    0
SMALL
NO_CHARGES


@<TRIPOS>ATOM
   1 C1            -0.1856     1.6463     0.8855 C.2     
   2 C2             1.1556     3.0010     2.7969 C.2     
   3 N3             0.0556     2.7377     3.4406 N.2     
   4 N4            -1.2232     2.3960     0.7023 N.2     
   5 C5            -0.3249     0.1461     0.8534 C.3     
   6 C6            -1.7866    -0.2250     0.5956 C.3     
   7 C7            -1.9280    -1.7481     0.5630 C.3     
   8 C8            -3.3898    -2.1192     0.3052 C.3     
   9 C9            -3.5290    -3.6194     0.2731 C.2     
  10 N10           -2.4905    -4.3692     0.4510 N.2     
  11 N11           -5.5608    -1.7279    -0.0096 N.2     
  12 C12           -6.1129    -2.9059    -0.0465 C.2     
  13 S13           -5.1069    -4.3520    -0.0068 S.3     
  14 N14           -7.4880    -3.0226    -0.1169 N.am    
  15 C15           -8.0547    -4.2367    -0.2626 C.2     
  16 O16           -7.3659    -5.2343    -0.2370 O.2     
  17 C17           -9.5445    -4.3544    -0.4572 C.3     
  18 C18           -9.9200    -5.8075    -0.5935 C.ar    
  19 C19          -10.1442    -6.5861     0.5473 C.ar    
  20 C20          -10.4951    -7.9428     0.4070 C.ar    
  21 C21          -10.6139    -8.4902    -0.8680 C.ar    
  22 C22          -10.3900    -7.7098    -1.9667 C.ar    
  23 C23          -10.0488    -6.3698    -1.8304 C.ar    
  24 N24            2.1380     3.7686     3.3929 N.am    
  25 C25            1.9570     4.2446     4.6407 C.2     
  26 O26            0.9321     3.9992     5.2404 O.2     
  27 C27            3.0284     5.0817     5.2907 C.3     
  28 C28            2.5820     5.4844     6.6726 C.ar    
  29 C29            1.9757     6.6906     6.8735 C.ar    
  30 C30            1.5605     7.0713     8.1436 C.ar    
  31 C31            1.7498     6.2487     9.2176 C.ar    
  32 C32            2.3656     5.0118     9.0433 C.ar    
  33 C33            2.7816     4.6214     7.7557 C.ar    
  34 S34            1.3922     2.3788     1.1655 S.3     
  35 C35          -10.1016    -6.3198     1.9815 C.2     
  36 N36          -10.4013    -7.4258     2.6005 N.2     
  37 N37          -10.6492    -8.4433     1.6734 N.pl3   
  38 N38            2.6929     3.9863     9.8915 N.pl3   
  39 N39            3.3098     2.9667     9.1593 N.2     
  40 C40            3.3808     3.2988     7.9019 C.2     
  41 H41           -0.6634     2.2606     2.9974 H       
  42 H42           -1.1484     3.3587     0.7946 H       
  43 H43            0.2989    -0.2598     0.0569 H       
  44 H44           -0.0080    -0.2688     1.8102 H       
  45 H45           -2.4104     0.1808     1.3921 H       
  46 H46           -2.1035     0.1899    -0.3612 H       
  47 H47           -1.3043    -2.1540    -0.2334 H       
  48 H48           -1.6111    -2.1630     1.5198 H       
  49 H49           -4.0136    -1.7134     1.1017 H       
  50 H50           -3.7067    -1.7043    -0.6516 H       
  51 H51           -2.5657    -5.3318     0.3585 H       
  52 H52           -6.1154    -0.9338     0.0418 H       
  53 H53           -8.0454    -2.2306    -0.0614 H       
  54 H54          -10.0583    -3.9255     0.4031 H       
  55 H55           -9.8365    -3.8175    -1.3597 H       
  56 H56          -10.8821    -9.5295    -0.9879 H       
  57 H57          -10.4833    -8.1387    -2.9535 H       
  58 H58           -9.8762    -5.7695    -2.7114 H       
  59 H59            2.9579     3.9649     2.9131 H       
  60 H60            3.9493     4.5028     5.3607 H       
  61 H61            3.2052     5.9747     4.6913 H       
  62 H62            1.8176     7.3556     6.0373 H       
  63 H63            1.0825     8.0296     8.2835 H       
  64 H64            1.4230     6.5569    10.1997 H       
  65 H65           -9.8639    -5.3744     2.4465 H       
  66 H66          -10.8913    -9.3569     1.8918 H       
  67 H67            2.5241     3.9704    10.8466 H       
  68 H68            3.8079     2.7025     7.1093 H       
@<TRIPOS>BOND
   1    1    5 1
   2    1   34 1
   3    1    4 2
   4    2    3 2
   5    2   24 1
   6    2   34 1
   7    3   41 1
   8    4   42 1
   9    5    6 1
  10    5   43 1
  11    5   44 1
  12    6    7 1
  13    6   45 1
  14    6   46 1
  15    7    8 1
  16    7   47 1
  17    7   48 1
  18    8    9 1
  19    8   49 1
  20    8   50 1
  21    9   10 2
  22    9   13 1
  23   10   51 1
  24   11   12 2
  25   11   52 1
  26   12   13 1
  27   12   14 1
  28   14   15 am
  29   14   53 1
  30   15   16 2
  31   15   17 1
  32   17   18 1
  33   17   54 1
  34   17   55 1
  35   18   19 ar
  36   18   23 ar
  37   19   20 ar
  38   19   35 1
  39   20   21 ar
  40   20   37 1
  41   21   22 ar
  42   21   56 1
  43   22   23 ar
  44   22   57 1
  45   23   58 1
  46   24   25 am
  47   24   59 1
  48   25   26 2
  49   25   27 1
  50   27   28 1
  51   27   60 1
  52   27   61 1
  53   28   29 ar
  54   28   33 ar
  55   29   30 ar
  56   29   62 1
  57   30   31 ar
  58   30   63 1
  59   31   32 ar
  60   31   64 1
  61   32   33 ar
  62   32   38 1
  63   33   40 1
  64   35   36 2
  65   35   65 1
  66   36   37 1
  67   37   66 1
  68   38   39 1
  69   38   67 1
  70   39   40 2
  71   40   68 1

#	End of record

