#	Name: ASD01410056
#	Creating user name:	WinNT
#	Creation time:	15. 06. 2019 19:16

#	Modifying user name:	WinNT
#	Modification time:	15. 06. 2019 19:16

#	Program:	/corina/corina34_cracker 3.40 0067  02.08.2006

@<TRIPOS>MOLECULE
ASD01410056
  55   57    0    0    0
SMALL
NO_CHARGES


@<TRIPOS>ATOM
   1 C1            -0.1379     1.4324    -1.1071 C.ar    
   2 C2            -0.0801     0.0509    -0.9692 C.ar    
   3 C3            -1.2278    -0.6620    -0.6717 C.ar    
   4 C4            -2.4425     0.0166    -0.5112 C.ar    
   5 C5            -2.5009     1.4131    -0.6506 C.ar    
   6 C6            -1.3368     2.1102    -0.9441 C.ar    
   7 C7            -3.8104    -0.4282    -0.2002 C.2     
   8 C8            -4.6051     0.8068    -0.1805 C.2     
   9 O9            -3.7685     1.8364    -0.4524 O.3     
  10 O10           -4.1977    -1.5677    -0.0033 O.2     
  11 C11           -5.9383     0.8995     0.0654 C.2     
  12 C12           -6.5708     2.2158     0.1895 C.ar    
  13 O13            0.9918     2.1262    -1.3987 O.3     
  14 O14           -1.1770    -2.0111    -0.5364 O.3     
  15 C15           -7.9689     2.3394     0.0985 C.ar    
  16 C16           -8.5539     3.5878     0.2173 C.ar    
  17 C17           -7.7608     4.7075     0.4248 C.ar    
  18 C18           -6.3774     4.5823     0.5144 C.ar    
  19 C19           -5.7861     3.3565     0.4050 C.ar    
  20 O20           -8.3370     5.9311     0.5405 O.3     
  21 C21           -7.4636     7.0420     0.7530 C.3     
  22 C22           -8.2883     8.3265     0.8575 C.3     
  23 C23           -7.3532     9.5159     1.0850 C.3     
  24 C24           -8.1779    10.8003     1.1896 C.3     
  25 O25           -8.7394     1.2412    -0.1049 O.3     
  26 C26          -10.1514     1.4453    -0.1863 C.3     
  27 C27          -10.8484     0.1028    -0.4161 C.3     
  28 C28          -12.3602     0.3214    -0.5033 C.3     
  29 C29          -13.0572    -1.0211    -0.7331 C.3     
  30 H30            0.8598    -0.4659    -1.0946 H       
  31 H31           -1.3664     3.1842    -1.0542 H       
  32 H32           -6.5318     0.0032     0.1695 H       
  33 H33            1.1536     2.2342    -2.3459 H       
  34 H34           -0.9962    -2.3095     0.3655 H       
  35 H35           -9.6268     3.6907     0.1482 H       
  36 H36           -5.7684     5.4595     0.6760 H       
  37 H37           -4.7122     3.2673     0.4755 H       
  38 H38           -6.9044     6.8931     1.6767 H       
  39 H39           -6.7690     7.1233    -0.0831 H       
  40 H40           -8.8475     8.4754    -0.0662 H       
  41 H41           -8.9829     8.2452     1.6936 H       
  42 H42           -6.7940     9.3669     2.0088 H       
  43 H43           -6.6586     9.5971     0.2489 H       
  44 H44           -8.7370    10.9493     0.2659 H       
  45 H45           -8.8725    10.7191     2.0257 H       
  46 H46           -7.5117    11.6477     1.3517 H       
  47 H47          -10.5091     1.8858     0.7444 H       
  48 H48          -10.3742     2.1170    -1.0153 H       
  49 H49          -10.4907    -0.3376    -1.3468 H       
  50 H50          -10.6256    -0.5689     0.4129 H       
  51 H51          -12.7179     0.7619     0.4274 H       
  52 H52          -12.5830     0.9931    -1.3323 H       
  53 H53          -14.1342    -0.8653    -0.7952 H       
  54 H54          -12.6995    -1.4615    -1.6638 H       
  55 H55          -12.8344    -1.6927     0.0959 H       
@<TRIPOS>BOND
   1    1    2 ar
   2    1   13 1
   3    1    6 ar
   4    2    3 ar
   5    2   30 1
   6    3    4 ar
   7    3   14 1
   8    4    5 ar
   9    4    7 1
  10    5    6 ar
  11    5    9 1
  12    6   31 1
  13    7    8 1
  14    7   10 2
  15    8    9 1
  16    8   11 2
  17   11   12 1
  18   11   32 1
  19   12   15 ar
  20   12   19 ar
  21   13   33 1
  22   14   34 1
  23   15   16 ar
  24   15   25 1
  25   16   17 ar
  26   16   35 1
  27   17   18 ar
  28   17   20 1
  29   18   19 ar
  30   18   36 1
  31   19   37 1
  32   20   21 1
  33   21   22 1
  34   21   38 1
  35   21   39 1
  36   22   23 1
  37   22   40 1
  38   22   41 1
  39   23   24 1
  40   23   42 1
  41   23   43 1
  42   24   44 1
  43   24   45 1
  44   24   46 1
  45   25   26 1
  46   26   27 1
  47   26   47 1
  48   26   48 1
  49   27   28 1
  50   27   49 1
  51   27   50 1
  52   28   29 1
  53   28   51 1
  54   28   52 1
  55   29   53 1
  56   29   54 1
  57   29   55 1

#	End of record

