#	Name: ASD01911792
#	Creating user name:	WinNT
#	Creation time:	15. 06. 2019 19:58

#	Modifying user name:	WinNT
#	Modification time:	15. 06. 2019 19:58

#	Program:	/corina/corina34_cracker 3.40 0067  02.08.2006

@<TRIPOS>MOLECULE
ASD01911792
  46   48    0    0    0
SMALL
NO_CHARGES


@<TRIPOS>ATOM
   1 C1            -0.3535     1.5398     0.0049 C.2     
   2 N2            -0.2738     0.1925     0.3372 N.pl3   
   3 C3             0.7086     2.3949     0.3937 C.2     
   4 C4             1.7539     1.8606     1.0718 C.2     
   5 N5             1.7807     0.5526     1.3671 N.2     
   6 C6             0.8235    -0.2578     1.0248 C.2     
   7 C7            -1.3860    -0.4373    -0.1270 C.2     
   8 C8            -2.1866     0.5065    -0.7611 C.2     
   9 C9            -1.5150     1.7525    -0.6730 C.2     
  10 N10           -1.6717    -1.7854     0.0081 N.pl3   
  11 C11           -0.9234    -2.7344    -0.7006 C.ar    
  12 C12           -1.2555    -4.0832    -0.6204 C.ar    
  13 C13            0.1458    -2.3287    -1.4872 C.ar    
  14 C14            0.8836    -3.2639    -2.1864 C.ar    
  15 C15            0.5563    -4.6113    -2.1030 C.ar    
  16 C16           -0.5169    -5.0186    -1.3196 C.ar    
  17 F17           -2.2993    -4.4782     0.1410 F       
  18 C18           -3.4817     0.2583    -1.4067 C.2     
  19 N19           -4.1517     1.2743    -1.9858 N.am    
  20 O20           -3.9502    -0.8647    -1.4189 O.2     
  21 O21           -5.4007     1.0349    -2.6085 O.3     
  22 C22           -5.9979     2.2004    -3.1803 C.3     
  23 C23           -7.3355     1.8256    -3.8217 C.3     
  24 O24           -8.2453     1.3933    -2.8081 O.3     
  25 C25           -7.9155     3.0449    -4.5412 C.3     
  26 S26            1.4978    -5.8034    -2.9957 S.3     
  27 C27            0.6898    -7.3688    -2.5629 C.3     
  28 H28            0.6855     3.4479     0.1548 H       
  29 H29            2.5734     2.4945     1.3769 H       
  30 H30            0.8936    -1.3031     1.2870 H       
  31 H31           -1.8637     2.6967    -1.0647 H       
  32 H32           -2.3899    -2.0727     0.5933 H       
  33 H33            0.4008    -1.2813    -1.5529 H       
  34 H34            1.7152    -2.9474    -2.7985 H       
  35 H35           -0.7713    -6.0662    -1.2544 H       
  36 H36           -3.7783     2.1695    -1.9761 H       
  37 H37           -6.1645     2.9433    -2.4003 H       
  38 H38           -5.3340     2.6135    -3.9397 H       
  39 H39           -7.1812     1.0196    -4.5392 H       
  40 H40           -8.4294     2.0615    -2.1339 H       
  41 H41           -7.2216     3.3746    -5.3144 H       
  42 H42           -8.8684     2.7779    -4.9982 H       
  43 H43           -8.0698     3.8508    -3.8238 H       
  44 H44            0.7401    -7.5176    -1.4843 H       
  45 H45           -0.3535    -7.3382    -2.8772 H       
  46 H46            1.1972    -8.1912    -3.0673 H       
@<TRIPOS>BOND
   1    1    2 1
   2    1    3 1
   3    1    9 2
   4    2    7 1
   5    2    6 1
   6    3    4 2
   7    3   28 1
   8    4    5 1
   9    4   29 1
  10    5    6 2
  11    6   30 1
  12    7    8 2
  13    7   10 1
  14    8    9 1
  15    8   18 1
  16    9   31 1
  17   10   11 1
  18   10   32 1
  19   11   12 ar
  20   11   13 ar
  21   12   17 1
  22   12   16 ar
  23   13   14 ar
  24   13   33 1
  25   14   15 ar
  26   14   34 1
  27   15   16 ar
  28   15   26 1
  29   16   35 1
  30   18   19 am
  31   18   20 2
  32   19   21 1
  33   19   36 1
  34   21   22 1
  35   22   23 1
  36   22   37 1
  37   22   38 1
  38   23   24 1
  39   23   25 1
  40   23   39 1
  41   24   40 1
  42   25   41 1
  43   25   42 1
  44   25   43 1
  45   26   27 1
  46   27   44 1
  47   27   45 1
  48   27   46 1

#	End of record

