#	Name: ASD04590281
#	Creating user name:	WinNT
#	Creation time:	15. 06. 2019 20:50

#	Modifying user name:	WinNT
#	Modification time:	15. 06. 2019 20:50

#	Program:	/corina/corina34_cracker 3.40 0067  02.08.2006

@<TRIPOS>MOLECULE
ASD04590281
  36   39    0    0    0
SMALL
NO_CHARGES


@<TRIPOS>ATOM
   1 C1            -0.0167     1.3832     0.0096 C.ar    
   2 C2             0.0021    -0.0041     0.0020 C.ar    
   3 C3             1.1969    -0.6869    -0.0130 C.ar    
   4 C4             2.4020     0.0223    -0.0207 C.ar    
   5 C5             2.3769     1.4283    -0.0129 C.ar    
   6 C6             1.1624     2.0986     0.0022 C.ar    
   7 N7             3.7040    -0.3551    -0.0351 N.2     
   8 C8             4.4709     0.7083    -0.0367 C.2     
   9 N9             3.6969     1.8375    -0.0233 N.pl3   
  10 C10            5.9482     0.6906    -0.0514 C.2     
  11 C11            6.7657    -0.4631    -0.0663 C.2     
  12 C12            8.0579    -0.0539    -0.0766 C.2     
  13 N13            8.0646     1.3050    -0.0684 N.pl3   
  14 N14            6.7360     1.7480    -0.0585 N.2     
  15 N15            6.3189    -1.7943    -0.0700 N.am    
  16 C16            7.2109    -2.8045    -0.0848 C.2     
  17 C17            6.7409    -4.2045    -0.0886 C.ar    
  18 O18            8.4026    -2.5632    -0.0950 O.2     
  19 C19            6.0603    -6.1702    -1.2939 C.ar    
  20 C20            5.8582    -6.8314    -0.0958 C.ar    
  21 C21            6.0894    -6.1865     1.1060 C.ar    
  22 C22            6.5293    -4.8776     1.1177 C.ar    
  23 Cl23           6.8193    -4.0704     2.6271 Cl      
  24 C24            6.5001    -4.8611    -1.2985 C.ar    
  25 Cl25           6.7525    -4.0332    -2.8033 Cl      
  26 H26           -0.9614     1.9066     0.0169 H       
  27 H27           -0.9283    -0.5525     0.0083 H       
  28 H28            1.2037    -1.7669    -0.0185 H       
  29 H29            1.1403     3.1784     0.0079 H       
  30 H30            4.0155     2.7537    -0.0217 H       
  31 H31            8.9277    -0.6941    -0.0886 H       
  32 H32            8.8529     1.8702    -0.0725 H       
  33 H33            5.3682    -1.9868    -0.0618 H       
  34 H34            5.8776    -6.6803    -2.2281 H       
  35 H35            5.5141    -7.8551    -0.0986 H       
  36 H36            5.9293    -6.7093     2.0373 H       
@<TRIPOS>BOND
   1    1    2 ar
   2    1    6 ar
   3    1   26 1
   4    2    3 ar
   5    2   27 1
   6    3    4 ar
   7    3   28 1
   8    4    5 ar
   9    4    7 1
  10    5    6 ar
  11    5    9 1
  12    6   29 1
  13    7    8 2
  14    8    9 1
  15    8   10 1
  16    9   30 1
  17   10   11 1
  18   10   14 2
  19   11   12 2
  20   11   15 1
  21   12   13 1
  22   12   31 1
  23   13   14 1
  24   13   32 1
  25   15   16 am
  26   15   33 1
  27   16   17 1
  28   16   18 2
  29   17   22 ar
  30   17   24 ar
  31   19   20 ar
  32   19   24 ar
  33   19   34 1
  34   20   21 ar
  35   20   35 1
  36   21   22 ar
  37   21   36 1
  38   22   23 1
  39   24   25 1

#	End of record

