#	Name: ASD01913933
#	Creating user name:	WinNT
#	Creation time:	15. 06. 2019 20:02

#	Modifying user name:	WinNT
#	Modification time:	15. 06. 2019 20:02

#	Program:	/corina/corina34_cracker 3.40 0067  02.08.2006

@<TRIPOS>MOLECULE
ASD01913933
  41   43    0    0    0
SMALL
NO_CHARGES


@<TRIPOS>ATOM
   1 C1            -0.0161     1.4277     0.0217 C.ar    
   2 C2             0.0033    -0.0041     0.0137 C.1     
   3 C3             0.0192    -1.1780     0.0072 C.1     
   4 C4             0.0386    -2.6098    -0.0008 C.ar    
   5 N5            -1.0801    -3.2944     0.2390 N.ar    
   6 C6             0.1296    -5.2905    -0.0270 C.ar    
   7 N7             1.2440    -4.6119    -0.2723 N.ar    
   8 C8             1.2294    -3.2927    -0.2657 C.ar    
   9 C9            -1.0595    -4.6123     0.2310 C.ar    
  10 C10           -1.2058     2.1119     0.2864 C.ar    
  11 C11           -0.0536     4.1979     0.0371 C.ar    
  12 N12            0.1479    -6.6835    -0.0346 N.am    
  13 C13            1.1558     2.1468    -0.2295 C.ar    
  14 C14           -1.2180     3.4905     0.2926 C.ar    
  15 C15           -0.9334    -7.4740    -0.0290 C.2     
  16 N16           -0.6493    -8.7830    -0.0386 N.am    
  17 C17            0.8105    -8.9604    -0.0528 C.3     
  18 C18            1.3574    -7.5197    -0.0566 C.3     
  19 C19            1.2723    -9.7125     1.1969 C.3     
  20 C20            1.2493    -9.6991    -1.3188 C.3     
  21 C21           -1.6360    -9.8659    -0.0353 C.3     
  22 O22           -2.0700    -7.0425    -0.0159 O.2     
  23 C23            1.1307     3.5252    -0.2204 C.ar    
  24 F24           -0.0721     5.5488     0.0441 F       
  25 H25            2.1362    -2.7409    -0.4651 H       
  26 H26           -1.9656    -5.1671     0.4252 H       
  27 H27           -2.1137     1.5618     0.4853 H       
  28 H28            2.0792     1.6237    -0.4299 H       
  29 H29           -2.1376     4.0203     0.4926 H       
  30 H30            1.9413    -7.3344    -0.9582 H       
  31 H31            1.9586    -7.3363     0.8340 H       
  32 H32            0.8174   -10.7029     1.2138 H       
  33 H33            2.3577    -9.8115     1.1810 H       
  34 H34            0.9709    -9.1590     2.0862 H       
  35 H35            0.9318    -9.1362    -2.1965 H       
  36 H36            2.3348    -9.7981    -1.3238 H       
  37 H37            0.7940   -10.6893    -1.3379 H       
  38 H38           -2.6402    -9.4423    -0.0243 H       
  39 H39           -1.5087   -10.4760    -0.9295 H       
  40 H40           -1.4930   -10.4850     0.8503 H       
  41 H41            2.0355     4.0819    -0.4147 H       
@<TRIPOS>BOND
   1    1    2 1
   2    1   13 ar
   3    1   10 ar
   4    2    3 3
   5    3    4 1
   6    4    5 ar
   7    4    8 ar
   8    5    9 ar
   9    6    7 ar
  10    6   12 1
  11    6    9 ar
  12    7    8 ar
  13    8   25 1
  14    9   26 1
  15   10   14 ar
  16   10   27 1
  17   11   14 ar
  18   11   24 1
  19   11   23 ar
  20   12   15 am
  21   12   18 1
  22   13   23 ar
  23   13   28 1
  24   14   29 1
  25   15   16 am
  26   15   22 2
  27   16   17 1
  28   16   21 1
  29   17   18 1
  30   17   19 1
  31   17   20 1
  32   18   30 1
  33   18   31 1
  34   19   32 1
  35   19   33 1
  36   19   34 1
  37   20   35 1
  38   20   36 1
  39   20   37 1
  40   21   38 1
  41   21   39 1
  42   21   40 1
  43   23   41 1

#	End of record

