#	Name: ASD01900274
#	Creating user name:	WinNT
#	Creation time:	15. 06. 2019 19:51

#	Modifying user name:	WinNT
#	Modification time:	15. 06. 2019 19:51

#	Program:	/corina/corina34_cracker 3.40 0067  02.08.2006

@<TRIPOS>MOLECULE
ASD01900274
  39   41    0    0    0
SMALL
NO_CHARGES


@<TRIPOS>ATOM
   1 C1             0.2538     1.6720     0.1508 C.ar    
   2 C2             0.3435     0.2816     0.1505 C.ar    
   3 C3             1.5956    -0.3121     0.1641 C.ar    
   4 C4             2.7151     0.5055     0.1776 C.ar    
   5 C5             2.5514     1.8813     0.1771 C.ar    
   6 N6             1.3510     2.4188     0.1641 N.ar    
   7 C7            -1.0770     2.3222     0.1301 C.2     
   8 O8            -2.0850     1.6431     0.1129 O.2     
   9 N9            -1.1703     3.6667     0.1303 N.am    
  10 N10           -4.0309     5.8005     0.0867 N.am    
  11 C11           -2.6759     5.6155     0.1084 C.2     
  12 C12           -2.4336     4.2839     0.1106 C.2     
  13 C13           -3.6852     3.6290     0.0895 C.2     
  14 C14           -4.6398     4.5809     0.0753 C.2     
  15 S15           -4.8043     7.2647     0.0823 S.o2    
  16 O16           -6.1057     7.0327     0.6036 O.2     
  17 O17           -3.8960     8.2000     0.6476 O.2     
  18 C18           -5.0196     7.7358    -1.6019 C.ar    
  19 C19           -4.0679     8.5214    -2.2278 C.ar    
  20 C20           -4.2374     8.8904    -3.5501 C.ar    
  21 C21           -5.3572     8.4742    -4.2455 C.ar    
  22 C22           -6.3078     7.6898    -3.6196 C.ar    
  23 C23           -6.1361     7.3160    -2.2996 C.ar    
  24 C24           -7.1699     6.4556    -1.6198 C.3     
  25 Cl25          -2.6621     9.0442    -1.3537 Cl      
  26 H26           -0.5501    -0.3249     0.1401 H       
  27 H27            1.6970    -1.3873     0.1645 H       
  28 H28            3.7052     0.0743     0.1888 H       
  29 H29            3.4213     2.5212     0.1880 H       
  30 H30           -0.3659     4.2086     0.1441 H       
  31 H31           -1.9295     6.3959     0.1212 H       
  32 H32           -3.8475     2.5613     0.0858 H       
  33 H33           -5.7056     4.4069     0.0578 H       
  34 H34           -3.4951     9.5039    -4.0391 H       
  35 H35           -5.4897     8.7623    -5.2779 H       
  36 H36           -7.1829     7.3655    -4.1631 H       
  37 H37           -7.8649     7.0894    -1.0690 H       
  38 H38           -7.7162     5.8832    -2.3695 H       
  39 H39           -6.6763     5.7718    -0.9291 H       
@<TRIPOS>BOND
   1    1    2 ar
   2    1    6 ar
   3    1    7 1
   4    2    3 ar
   5    2   26 1
   6    3    4 ar
   7    3   27 1
   8    4    5 ar
   9    4   28 1
  10    5    6 ar
  11    5   29 1
  12    7    8 2
  13    7    9 am
  14    9   12 1
  15    9   30 1
  16   10   11 1
  17   10   14 1
  18   10   15 am
  19   11   12 2
  20   11   31 1
  21   12   13 1
  22   13   14 2
  23   13   32 1
  24   14   33 1
  25   15   16 2
  26   15   17 2
  27   15   18 1
  28   18   19 ar
  29   18   23 ar
  30   19   20 ar
  31   19   25 1
  32   20   21 ar
  33   20   34 1
  34   21   22 ar
  35   21   35 1
  36   22   23 ar
  37   22   36 1
  38   23   24 1
  39   24   37 1
  40   24   38 1
  41   24   39 1

#	End of record

