#	Name: ASD03750003
#	Creating user name:	WinNT
#	Creation time:	15. 06. 2019 20:47

#	Modifying user name:	WinNT
#	Modification time:	15. 06. 2019 20:47

#	Program:	/corina/corina34_cracker 3.40 0067  02.08.2006

@<TRIPOS>MOLECULE
ASD03750003
  56   57    0    0    0
SMALL
NO_CHARGES


@<TRIPOS>ATOM
   1 C1            -0.0173     1.4219     0.0099 C.2     
   2 C2             0.0021    -0.0041     0.0020 C.2     
   3 C3             1.1848    -0.6425     0.0218 C.2     
   4 C4             1.3821    -2.0744    -0.0206 C.2     
   5 C5             0.5472    -2.9958    -0.4739 C.2     
   6 C6             0.9721    -4.4508    -0.3926 C.3     
   7 C7            -0.7909    -2.6791    -1.0833 C.3     
   8 C8            -1.8778    -2.8502    -0.0559 C.2     
   9 O9            -1.5913    -2.9374     1.1199 O.2     
  10 C10           -3.2803    -2.9098    -0.4642 C.2     
  11 C11           -3.6202    -2.7626    -1.7462 C.2     
  12 C12           -5.0707    -2.8295    -2.1525 C.3     
  13 C13           -5.4463    -1.5581    -2.9174 C.3     
  14 O14           -5.0038    -0.4139    -2.1813 O.3     
  15 C15           -5.1930     0.8253    -2.8686 C.3     
  16 C16           -6.7001     1.0937    -3.0039 C.3     
  17 C17           -7.3666    -0.1316    -3.5752 C.2     
  18 C18           -6.9645    -1.5010    -3.0929 C.3     
  19 C19           -4.5707     1.9443    -2.0844 C.2     
  20 C20           -3.2862     2.2018    -2.0825 C.2     
  21 C21           -2.7963     3.3669    -1.2586 C.3     
  22 C22           -2.3198     1.3730    -2.8833 C.3     
  23 C23           -1.3378     3.1990    -0.8414 C.3     
  24 O24            1.0327     2.0353     0.0031 O.2     
  25 O25           -1.1953     2.0735     0.0302 O.3     
  26 C26           -0.9038     4.4462    -0.1048 C.2     
  27 O27           -0.5202     4.3699     1.0377 O.2     
  28 C28           -8.2942    -0.0050    -4.4920 C.2     
  29 H29           -0.9374    -0.5270    -0.0029 H       
  30 H30            2.0830    -0.0098     0.0745 H       
  31 H31            2.3432    -2.4515     0.3703 H       
  32 H32            1.9636    -4.5153     0.0556 H       
  33 H33            0.2598    -5.0037     0.2198 H       
  34 H34            0.9981    -4.8783    -1.3950 H       
  35 H35           -0.7950    -1.6607    -1.4647 H       
  36 H36           -0.9758    -3.3653    -1.9150 H       
  37 H37           -4.0503    -3.0783     0.2766 H       
  38 H38           -2.8616    -2.5928    -2.4959 H       
  39 H39           -5.2273    -3.6974    -2.7929 H       
  40 H40           -5.6950    -2.9167    -1.2636 H       
  41 H41           -4.9664    -1.5696    -3.8960 H       
  42 H42           -4.7721     0.7603    -3.8696 H       
  43 H43           -7.1183     1.3139    -2.0229 H       
  44 H44           -6.8581     1.9411    -3.6704 H       
  45 H45           -7.2741    -2.2487    -3.8235 H       
  46 H46           -7.4492    -1.7059    -2.1378 H       
  47 H47           -5.2171     2.5825    -1.4824 H       
  48 H48           -2.9007     4.2865    -1.8408 H       
  49 H49           -3.4164     3.4553    -0.3609 H       
  50 H50           -2.8638     0.5906    -3.4123 H       
  51 H51           -1.8059     2.0092    -3.6039 H       
  52 H52           -1.5894     0.9187    -2.2139 H       
  53 H53           -0.7014     3.0778    -1.7153 H       
  54 H54           -0.9369     5.4052    -0.6004 H       
  55 H55           -8.5810     0.9770    -4.8380 H       
  56 H56           -8.7720    -0.8827    -4.9015 H       
@<TRIPOS>BOND
   1    1    2 1
   2    1   24 2
   3    1   25 1
   4    2    3 2
   5    2   29 1
   6    3    4 1
   7    3   30 1
   8    4    5 2
   9    4   31 1
  10    5    6 1
  11    5    7 1
  12    6   32 1
  13    6   33 1
  14    6   34 1
  15    7    8 1
  16    7   35 1
  17    7   36 1
  18    8    9 2
  19    8   10 1
  20   10   11 2
  21   10   37 1
  22   11   12 1
  23   11   38 1
  24   12   13 1
  25   12   39 1
  26   12   40 1
  27   13   14 1
  28   13   18 1
  29   13   41 1
  30   14   15 1
  31   15   16 1
  32   15   19 1
  33   15   42 1
  34   16   17 1
  35   16   43 1
  36   16   44 1
  37   17   18 1
  38   17   28 2
  39   18   45 1
  40   18   46 1
  41   19   20 2
  42   19   47 1
  43   20   21 1
  44   20   22 1
  45   21   23 1
  46   21   48 1
  47   21   49 1
  48   22   50 1
  49   22   51 1
  50   22   52 1
  51   23   25 1
  52   23   26 1
  53   23   53 1
  54   26   27 2
  55   26   54 1
  56   28   55 1
  57   28   56 1

#	End of record

