#	Name: ASD02030423
#	Creating user name:	WinNT
#	Creation time:	15. 06. 2019 20:15

#	Modifying user name:	WinNT
#	Modification time:	15. 06. 2019 20:15

#	Program:	/corina/corina34_cracker 3.40 0067  02.08.2006

@<TRIPOS>MOLECULE
ASD02030423
  20   21    0    0    0
SMALL
NO_CHARGES


@<TRIPOS>ATOM
   1 O1            -0.6682     0.2405    -1.1783 O.3     
   2 C2             0.4086    -0.4331    -1.8429 C.3     
   3 C3             1.3462     0.0598    -0.7338 C.3     
   4 C4             0.0327     0.0518     0.0579 C.3     
   5 C5             2.3609    -0.9552    -0.2742 C.ar    
   6 C6             3.4244    -1.2886    -1.0921 C.ar    
   7 C7             4.3556    -2.2195    -0.6702 C.ar    
   8 C8             4.2229    -2.8168     0.5703 C.ar    
   9 C9             3.1596    -2.4831     1.3875 C.ar    
  10 C10            2.2314    -1.5483     0.9675 C.ar    
  11 I11            5.9670    -2.7256    -1.9097 I       
  12 F12            1.8864     1.3318    -0.9515 F       
  13 H13            0.2943    -1.5169    -1.8631 H       
  14 H14            0.6407    -0.0161    -2.8229 H       
  15 H15           -0.0646     0.8937     0.7433 H       
  16 H16           -0.1798    -0.9054     0.5341 H       
  17 H17            3.5276    -0.8223    -2.0608 H       
  18 H18            4.9499    -3.5442     0.9000 H       
  19 H19            3.0557    -2.9498     2.3560 H       
  20 H20            1.4030    -1.2844     1.6082 H       
@<TRIPOS>BOND
   1    1    2 1
   2    1    4 1
   3    2    3 1
   4    2   13 1
   5    2   14 1
   6    3    4 1
   7    3    5 1
   8    3   12 1
   9    4   15 1
  10    4   16 1
  11    5    6 ar
  12    5   10 ar
  13    6    7 ar
  14    6   17 1
  15    7    8 ar
  16    7   11 1
  17    8    9 ar
  18    8   18 1
  19    9   10 ar
  20    9   19 1
  21   10   20 1

#	End of record

