#	Name: ASD00431106
#	Creating user name:	WinNT
#	Creation time:	15. 06. 2019 18:35

#	Modifying user name:	WinNT
#	Modification time:	15. 06. 2019 18:35

#	Program:	/corina/corina34_cracker 3.40 0067  02.08.2006

@<TRIPOS>MOLECULE
ASD00431106
  62   63    0    0    0
SMALL
NO_CHARGES


@<TRIPOS>ATOM
   1 S1            -0.0247     1.7069    -0.0152 S.3     
   2 C2            -0.0346     0.0105    -0.2282 C.2     
   3 N3             1.1225    -0.3925    -0.6483 N.2     
   4 C4             2.0491     0.5314    -0.8260 C.2     
   5 C5             1.6551     1.7737    -0.5421 C.2     
   6 Sn6            2.8594     3.5478    -0.7000 Du      
   7 C7             1.6971     5.2578    -0.1108 C.3     
   8 C8             0.4779     5.3859    -1.0263 C.3     
   9 C9            -0.3492     6.6028    -0.6070 C.3     
  10 C10           -1.5683     6.7309    -1.5225 C.3     
  11 C11            4.5726     3.3678     0.5865 C.3     
  12 C12            5.3997     2.1509     0.1671 C.3     
  13 C13            6.6188     2.0228     1.0827 C.3     
  14 C14            7.4460     0.8059     0.6633 C.3     
  15 C15            3.5128     3.7917    -2.7338 C.3     
  16 C16            4.3699     5.0541    -2.8461 C.3     
  17 C17            4.8349     5.2277    -4.2934 C.3     
  18 C18            5.6919     6.4902    -4.4057 C.3     
  19 O19           -1.0983    -0.7954     0.0087 O.3     
  20 C20           -0.9194    -2.1384    -0.1049 C.ar    
  21 C21           -0.2596    -2.8374     0.8954 C.ar    
  22 C22           -0.0779    -4.2017     0.7798 C.ar    
  23 C23           -0.5546    -4.8728    -0.3365 C.ar    
  24 C24           -1.2144    -4.1740    -1.3367 C.ar    
  25 C25           -1.4016    -2.8107    -1.2185 C.ar    
  26 O26           -0.3749    -6.2158    -0.4506 O.3     
  27 C27           -0.8917    -6.8419    -1.6266 C.3     
  28 H28            3.0454     0.2998    -1.1727 H       
  29 H29            1.3658     5.1342     0.9203 H       
  30 H30            2.3076     6.1572    -0.1908 H       
  31 H31            0.8092     5.5095    -2.0573 H       
  32 H32           -0.1326     4.4865    -0.9462 H       
  33 H33           -0.6805     6.4791     0.4241 H       
  34 H34            0.2614     7.5022    -0.6870 H       
  35 H35           -2.1789     5.8315    -1.4424 H       
  36 H36           -2.1576     7.5978    -1.2237 H       
  37 H37           -1.2370     6.8545    -2.5535 H       
  38 H38            5.1831     4.2672     0.5064 H       
  39 H39            4.2413     3.2442     1.6175 H       
  40 H40            4.7891     1.2515     0.2472 H       
  41 H41            5.7310     2.2746    -0.8639 H       
  42 H42            7.2294     2.9222     1.0026 H       
  43 H43            6.2875     1.8992     2.1137 H       
  44 H44            6.8354    -0.0935     0.7434 H       
  45 H45            7.7772     0.9296    -0.3677 H       
  46 H46            8.3145     0.7147     1.3156 H       
  47 H47            4.1021     2.9247    -3.0325 H       
  48 H48            2.6443     3.8829    -3.3860 H       
  49 H49            3.7806     5.9211    -2.5474 H       
  50 H50            5.2384     4.9629    -2.1939 H       
  51 H51            5.4242     4.3607    -4.5921 H       
  52 H52            3.9664     5.3189    -4.9456 H       
  53 H53            6.0232     6.6138    -5.4368 H       
  54 H54            5.1027     7.3571    -4.1070 H       
  55 H55            6.5605     6.3989    -3.7535 H       
  56 H56            0.1123    -2.3147     1.7642 H       
  57 H57            0.4358    -4.7459     1.5586 H       
  58 H58           -1.5856    -4.6967    -2.2059 H       
  59 H59           -1.9195    -2.2674    -1.9950 H       
  60 H60           -1.9691    -6.6852    -1.6781 H       
  61 H61           -0.4188    -6.4073    -2.5073 H       
  62 H62           -0.6813    -7.9108    -1.5914 H       
@<TRIPOS>BOND
   1    1    2 1
   2    1    5 1
   3    2    3 2
   4    2   19 1
   5    3    4 1
   6    4    5 2
   7    4   28 1
   8    5    6 1
   9    6    7 1
  10    6   11 1
  11    6   15 1
  12    7    8 1
  13    7   29 1
  14    7   30 1
  15    8    9 1
  16    8   31 1
  17    8   32 1
  18    9   10 1
  19    9   33 1
  20    9   34 1
  21   10   35 1
  22   10   36 1
  23   10   37 1
  24   11   12 1
  25   11   38 1
  26   11   39 1
  27   12   13 1
  28   12   40 1
  29   12   41 1
  30   13   14 1
  31   13   42 1
  32   13   43 1
  33   14   44 1
  34   14   45 1
  35   14   46 1
  36   15   16 1
  37   15   47 1
  38   15   48 1
  39   16   17 1
  40   16   49 1
  41   16   50 1
  42   17   18 1
  43   17   51 1
  44   17   52 1
  45   18   53 1
  46   18   54 1
  47   18   55 1
  48   19   20 1
  49   20   21 ar
  50   20   25 ar
  51   21   22 ar
  52   21   56 1
  53   22   23 ar
  54   22   57 1
  55   23   24 ar
  56   23   26 1
  57   24   25 ar
  58   24   58 1
  59   25   59 1
  60   26   27 1
  61   27   60 1
  62   27   61 1
  63   27   62 1

#	End of record

