#	Name: ASD02660003
#	Creating user name:	WinNT
#	Creation time:	15. 06. 2019 20:26

#	Modifying user name:	WinNT
#	Modification time:	15. 06. 2019 20:26

#	Program:	/corina/corina34_cracker 3.40 0067  02.08.2006

@<TRIPOS>MOLECULE
ASD02660003
  63   66    0    0    0
SMALL
NO_CHARGES


@<TRIPOS>ATOM
   1 C1            -0.1468     1.5523    -0.1302 C.ar    
   2 C2            -0.1251     0.1709    -0.1655 C.ar    
   3 C3             1.0844    -0.5007    -0.2210 C.ar    
   4 C4             2.2709     0.2126    -0.2409 C.ar    
   5 C5             2.2467     1.5939    -0.2055 C.ar    
   6 C6             1.0385     2.2635    -0.1502 C.ar    
   7 C7             1.0135     3.7698    -0.1116 C.3     
   8 C8             0.7140     4.3027    -1.4891 C.ar    
   9 O9             0.0017     4.2062     0.7983 O.3     
  10 C10            1.7498     4.6701    -2.3277 C.ar    
  11 C11            1.4764     5.1589    -3.5911 C.ar    
  12 C12            0.1645     5.2805    -4.0169 C.ar    
  13 C13           -0.8721     4.9122    -3.1760 C.ar    
  14 C14           -0.5960     4.4183    -1.9151 C.ar    
  15 F15           -0.1040     5.7587    -5.2516 F       
  16 C16            0.2885     5.4550     1.4310 C.3     
  17 C17           -0.8560     5.8217     2.3779 C.3     
  18 C18           -0.5489     7.1588     3.0553 C.3     
  19 C19           -1.7468     7.5880     3.9069 C.3     
  20 C20           -1.4108     8.8944     4.6296 C.3     
  21 N21           -0.2297     8.6955     5.4792 N.3     
  22 C22            0.9450     8.3289     4.6780 C.3     
  23 C23            0.6793     7.0055     3.9567 C.3     
  24 C24            0.0399     9.8881     6.2935 C.3     
  25 C25            0.9824     9.5292     7.4133 C.ar    
  26 C26            0.5035     8.8912     8.5419 C.ar    
  27 C27            1.3683     8.5620     9.5692 C.ar    
  28 C28            2.7117     8.8705     9.4673 C.ar    
  29 C29            3.1909     9.5079     8.3379 C.ar    
  30 C30            2.3272     9.8331     7.3091 C.ar    
  31 F31            1.1068    -1.8511    -0.2551 F       
  32 C32           -0.9612     8.5548     8.6530 C.3     
  33 F33           -1.1878     7.8427     9.8357 F       
  34 F34           -1.7110     9.7358     8.6689 F       
  35 F35           -1.3447     7.7737     7.5576 F       
  36 H36           -1.0903     2.0765    -0.0915 H       
  37 H37           -1.0513    -0.3845    -0.1496 H       
  38 H38            3.2149    -0.3102    -0.2838 H       
  39 H39            3.1721     2.1506    -0.2210 H       
  40 H40            1.9837     4.1409     0.2186 H       
  41 H41            2.7730     4.5755    -1.9953 H       
  42 H42            2.2857     5.4463    -4.2460 H       
  43 H43           -1.8957     5.0066    -3.5071 H       
  44 H44           -1.4044     4.1310    -1.2591 H       
  45 H45            1.2159     5.3708     1.9975 H       
  46 H46            0.3952     6.2305     0.6726 H       
  47 H47           -1.7834     5.9060     1.8114 H       
  48 H48           -0.9627     5.0462     3.1364 H       
  49 H49           -0.3523     7.9153     2.2957 H       
  50 H50           -2.6142     7.7401     3.2645 H       
  51 H51           -1.9682     6.8128     4.6406 H       
  52 H52           -1.2031     9.6727     3.8952 H       
  53 H53           -2.2565     9.1953     5.2480 H       
  54 H54            1.1417     9.1097     3.9434 H       
  55 H55            1.8104     8.2189     5.3315 H       
  56 H56            0.4962     6.2212     4.6911 H       
  57 H57            1.5455     6.7415     3.3499 H       
  58 H58            0.4930    10.6589     5.6701 H       
  59 H59           -0.8950    10.2617     6.7112 H       
  60 H60            0.9939     8.0640    10.4515 H       
  61 H61            3.3870     8.6139    10.2701 H       
  62 H62            4.2405     9.7492     8.2585 H       
  63 H63            2.7015    10.3310     6.4268 H       
@<TRIPOS>BOND
   1    1    2 ar
   2    1    6 ar
   3    1   36 1
   4    2    3 ar
   5    2   37 1
   6    3    4 ar
   7    3   31 1
   8    4    5 ar
   9    4   38 1
  10    5    6 ar
  11    5   39 1
  12    6    7 1
  13    7    8 1
  14    7    9 1
  15    7   40 1
  16    8   10 ar
  17    8   14 ar
  18    9   16 1
  19   10   11 ar
  20   10   41 1
  21   11   12 ar
  22   11   42 1
  23   12   13 ar
  24   12   15 1
  25   13   14 ar
  26   13   43 1
  27   14   44 1
  28   16   17 1
  29   16   45 1
  30   16   46 1
  31   17   18 1
  32   17   47 1
  33   17   48 1
  34   18   19 1
  35   18   23 1
  36   18   49 1
  37   19   20 1
  38   19   50 1
  39   19   51 1
  40   20   21 1
  41   20   52 1
  42   20   53 1
  43   21   22 1
  44   21   24 1
  45   22   23 1
  46   22   54 1
  47   22   55 1
  48   23   56 1
  49   23   57 1
  50   24   25 1
  51   24   58 1
  52   24   59 1
  53   25   26 ar
  54   25   30 ar
  55   26   27 ar
  56   26   32 1
  57   27   28 ar
  58   27   60 1
  59   28   29 ar
  60   28   61 1
  61   29   30 ar
  62   29   62 1
  63   30   63 1
  64   32   33 1
  65   32   34 1
  66   32   35 1

#	End of record

