#	Name: ASD05143125
#	Creating user name:	WinNT
#	Creation time:	15. 06. 2019 20:57

#	Modifying user name:	WinNT
#	Modification time:	15. 06. 2019 20:57

#	Program:	/corina/corina34_cracker 3.40 0067  02.08.2006

@<TRIPOS>MOLECULE
ASD05143125
 144  147    0    0    0
SMALL
NO_CHARGES


@<TRIPOS>ATOM
   1 C1            -0.7698     2.1909    -7.2631 C.2     
   2 C2            -0.7735     1.1037    -8.3067 C.3     
   3 N3             0.3933     2.5943    -6.7145 N.am    
   4 O4            -1.8128     2.7063    -6.9206 O.2     
   5 C5             0.3969     3.6513    -5.7000 C.3     
   6 C6            -0.1948     4.9308    -6.2945 C.3     
   7 C7            -0.4314     3.2164    -4.5186 C.2     
   8 C8             0.7147     5.4412    -7.4140 C.3     
   9 C9             0.1229     6.7207    -8.0085 C.3     
  10 N10            0.9938     7.2094    -9.0804 N.pl3   
  11 C11            0.6637     8.3544    -9.7661 C.2     
  12 N12            1.4810     8.8130   -10.7721 N.pl3   
  13 N13           -0.4240     9.0052    -9.4624 N.2     
  14 O14           -1.2508     2.3313    -4.6453 O.2     
  15 N15           -0.2617     3.8112    -3.3211 N.am    
  16 C16           -1.0669     3.3884    -2.1726 C.3     
  17 C17           -0.3182     3.7120    -0.8782 C.3     
  18 C18            0.8536     2.7424    -0.7111 C.3     
  19 C19            2.0613     3.4941    -0.1478 C.3     
  20 N20            2.1454     3.2321     1.3072 N.am    
  21 C21            2.5896     4.2784     2.0653 C.2     
  22 C22            2.9442     5.5719     1.3781 C.3     
  23 C23            4.0289     6.2944     2.1793 C.3     
  24 C24            3.3788     7.1057     3.3018 C.3     
  25 N25            3.1524     8.4845     2.8248 N.am    
  26 C26            4.2912     7.1298     4.5009 C.2     
  27 N27            4.3338     6.0733     5.3366 N.am    
  28 O28            4.9872     8.0999     4.7140 O.2     
  29 C29            2.2232     9.2168     3.4982 C.2     
  30 O30            1.6253     8.7368     4.4378 O.2     
  31 C31            1.9481    10.6324     3.0604 C.3     
  32 N32            0.4835    10.8511     3.0602 N.am    
  33 C33            2.6130    11.6091     4.0325 C.3     
  34 C34           -0.0605    11.1673     1.8476 C.2     
  35 O35            0.6394    11.2551     0.8609 O.2     
  36 C36           -1.5460    11.4044     1.7581 C.3     
  37 N37           -2.0186    10.9684     0.4289 N.am    
  38 C38           -2.2601    10.5994     2.8457 C.3     
  39 C39           -3.1845    10.2666     0.3976 C.2     
  40 O40           -3.7890    10.0332     1.4228 O.2     
  41 C41           -3.7144     9.7838    -0.9282 C.3     
  42 C42            2.4407    13.0178     3.5257 C.2     
  43 C43            1.2835    13.8882     3.7476 C.ar    
  44 C44            1.5744    15.0969     3.0893 C.ar    
  45 N45            2.8179    14.9575     2.5149 N.pl3   
  46 C46            3.3209    13.7151     2.7902 C.2     
  47 C47            0.0729    13.7388     4.4271 C.ar    
  48 C48           -0.8242    14.7690     4.4492 C.ar    
  49 C49           -0.5420    15.9637     3.8007 C.ar    
  50 C50            0.6465    16.1328     3.1251 C.ar    
  51 N51           -3.9614     8.3266    -0.8345 N.am    
  52 C52           -2.6842    10.0609    -2.0249 C.3     
  53 C53           -1.2967     9.9839    -1.4419 C.ar    
  54 C54           -0.8838     8.8372    -0.7877 C.ar    
  55 C55            0.3905     8.7671    -0.2530 C.ar    
  56 C56            1.2499     9.8426    -0.3728 C.ar    
  57 C57            0.8366    10.9886    -1.0268 C.ar    
  58 C58           -0.4344    11.0572    -1.5657 C.ar    
  59 C59           -2.3849     4.1188    -2.1872 C.2     
  60 O60           -3.4040     3.5414    -2.5015 O.2     
  61 C61           -2.0139     9.1063     2.6197 C.3     
  62 C62           -2.6269     8.3082     3.7721 C.3     
  63 N63           -2.3912     6.8786     3.5557 N.pl3   
  64 C64           -2.8543     5.9597     4.4675 C.2     
  65 N65           -3.5387     6.3825     5.5825 N.pl3   
  66 N66           -2.6446     4.6878     4.2750 N.2     
  67 N67           -2.4163     5.4353    -1.8425 N.am    
  68 C68           -3.7357     6.0971    -1.8817 C.3     
  69 C69           -3.5303     7.5900    -1.9014 C.2     
  70 O70           -2.9926     8.1273    -2.8464 O.2     
  71 C71           -4.5421     5.7068    -0.6414 C.3     
  72 C72           -5.9540     6.2151    -0.7797 C.2     
  73 N73           -6.8769     5.9028     0.1515 N.am    
  74 Cl74          -1.9642     7.4867    -0.6371 Cl      
  75 O75            2.6970     4.1681     3.2684 O.2     
  76 O76           -6.2598     6.9051    -1.7291 O.2     
  77 H77            0.2481     0.7687    -8.4861 H       
  78 H78           -1.3745     0.2649    -7.9553 H       
  79 H79           -1.1969     1.4910    -9.2334 H       
  80 H80            1.2279     2.1849    -6.9913 H       
  81 H81            1.4204     3.8406    -5.3763 H       
  82 H82           -1.1849     4.7196    -6.6986 H       
  83 H83           -0.2743     5.6900    -5.5164 H       
  84 H84            1.7047     5.6523    -7.0099 H       
  85 H85            0.7941     4.6820    -8.1921 H       
  86 H86           -0.8672     6.5095    -8.4126 H       
  87 H87            0.0434     7.4799    -7.2304 H       
  88 H88            1.8032     6.7251    -9.3064 H       
  89 H89            2.2904     8.3287   -10.9980 H       
  90 H90            1.2481     9.6209   -11.2558 H       
  91 H91           -0.6569     9.8131    -9.9462 H       
  92 H92            0.3937     4.5191    -3.2197 H       
  93 H93           -1.2460     2.3148    -2.2300 H       
  94 H94            0.0590     4.7337    -0.9222 H       
  95 H95           -0.9967     3.6113    -0.0311 H       
  96 H96            0.5699     1.9445    -0.0248 H       
  97 H97            1.1117     2.3140    -1.6796 H       
  98 H98            2.9707     3.1434    -0.6359 H       
  99 H99            1.9397     4.5635    -0.3205 H       
 100 H100           1.9018     2.3771     1.6951 H       
 101 H101           3.3136     5.3607     0.3746 H       
 102 H102           2.0584     6.2038     1.3137 H       
 103 H103           4.7118     5.5617     2.6092 H       
 104 H104           4.5820     6.9639     1.5205 H       
 105 H105           2.4257     6.6527     3.5749 H       
 106 H106           3.6408     8.8499     2.0705 H       
 107 H107           3.7771     5.2974     5.1662 H       
 108 H108           4.9211     6.0888     6.1085 H       
 109 H109           2.3413    10.7876     2.0557 H       
 110 H110          -0.0523    10.7754     3.8652 H       
 111 H111           2.1489    11.5169     5.0144 H       
 112 H112           3.6755    11.3781     4.1096 H       
 113 H113          -1.7550    12.4660     1.8900 H       
 114 H114          -1.5240    11.1719    -0.3804 H       
 115 H115          -1.8740    10.8874     3.8235 H       
 116 H116          -3.3304    10.8016     2.8037 H       
 117 H117          -4.6467    10.2990    -1.1593 H       
 118 H118           3.2715    15.6398     1.9956 H       
 119 H119           4.2805    13.3472     2.4583 H       
 120 H120          -0.1536    12.8120     4.9332 H       
 121 H121          -1.7604    14.6530     4.9749 H       
 122 H122          -1.2613    16.7689     3.8268 H       
 123 H123           0.8568    17.0662     2.6241 H       
 124 H124          -4.3987     7.9229    -0.0686 H       
 125 H125          -2.7875     9.3185    -2.8163 H       
 126 H126          -2.8507    11.0563    -2.4366 H       
 127 H127           0.7133     7.8722     0.2582 H       
 128 H128           2.2444     9.7882     0.0448 H       
 129 H129           1.5085    11.8290    -1.1199 H       
 130 H130          -0.7565    11.9525    -2.0767 H       
 131 H131          -2.4745     8.8003     1.6803 H       
 132 H132          -0.9413     8.9173     2.5770 H       
 133 H133          -2.1664     8.6143     4.7114 H       
 134 H134          -3.6996     8.4972     3.8148 H       
 135 H135          -1.9084     6.5803     2.7691 H       
 136 H136          -3.6947     7.3291     5.7258 H       
 137 H137          -3.8654     5.7343     6.2258 H       
 138 H138          -2.9713     4.0395     4.9183 H       
 139 H139          -1.6132     5.9140    -1.5841 H       
 140 H140          -4.2718     5.7902    -2.7797 H       
 141 H141          -4.5547     4.6213    -0.5429 H       
 142 H142          -4.0827     6.1466     0.2439 H       
 143 H143          -6.6324     5.3509     0.9107 H       
 144 H144          -7.7857     6.2300     0.0624 H       
@<TRIPOS>BOND
   1    1    2 1
   2    1    3 am
   3    1    4 2
   4    2   77 1
   5    2   78 1
   6    2   79 1
   7    3    5 1
   8    3   80 1
   9    5    6 1
  10    5    7 1
  11    5   81 1
  12    6    8 1
  13    6   82 1
  14    6   83 1
  15    7   14 2
  16    7   15 am
  17    8    9 1
  18    8   84 1
  19    8   85 1
  20    9   10 1
  21    9   86 1
  22    9   87 1
  23   10   11 1
  24   10   88 1
  25   11   12 1
  26   11   13 2
  27   12   89 1
  28   12   90 1
  29   13   91 1
  30   15   16 1
  31   15   92 1
  32   16   17 1
  33   16   59 1
  34   16   93 1
  35   17   18 1
  36   17   94 1
  37   17   95 1
  38   18   19 1
  39   18   96 1
  40   18   97 1
  41   19   20 1
  42   19   98 1
  43   19   99 1
  44   20   21 am
  45   20  100 1
  46   21   22 1
  47   21   75 2
  48   22   23 1
  49   22  101 1
  50   22  102 1
  51   23   24 1
  52   23  103 1
  53   23  104 1
  54   24   25 1
  55   24   26 1
  56   24  105 1
  57   25   29 am
  58   25  106 1
  59   26   27 am
  60   26   28 2
  61   27  107 1
  62   27  108 1
  63   29   30 2
  64   29   31 1
  65   31   32 1
  66   31   33 1
  67   31  109 1
  68   32   34 am
  69   32  110 1
  70   33   42 1
  71   33  111 1
  72   33  112 1
  73   34   35 2
  74   34   36 1
  75   36   37 1
  76   36   38 1
  77   36  113 1
  78   37   39 am
  79   37  114 1
  80   38   61 1
  81   38  115 1
  82   38  116 1
  83   39   40 2
  84   39   41 1
  85   41   51 1
  86   41   52 1
  87   41  117 1
  88   42   43 1
  89   42   46 2
  90   43   44 ar
  91   43   47 ar
  92   44   45 1
  93   44   50 ar
  94   45   46 1
  95   45  118 1
  96   46  119 1
  97   47   48 ar
  98   47  120 1
  99   48   49 ar
 100   48  121 1
 101   49   50 ar
 102   49  122 1
 103   50  123 1
 104   51   69 am
 105   51  124 1
 106   52   53 1
 107   52  125 1
 108   52  126 1
 109   53   54 ar
 110   53   58 ar
 111   54   55 ar
 112   54   74 1
 113   55   56 ar
 114   55  127 1
 115   56   57 ar
 116   56  128 1
 117   57   58 ar
 118   57  129 1
 119   58  130 1
 120   59   60 2
 121   59   67 am
 122   61   62 1
 123   61  131 1
 124   61  132 1
 125   62   63 1
 126   62  133 1
 127   62  134 1
 128   63   64 1
 129   63  135 1
 130   64   65 1
 131   64   66 2
 132   65  136 1
 133   65  137 1
 134   66  138 1
 135   67   68 1
 136   67  139 1
 137   68   69 1
 138   68   71 1
 139   68  140 1
 140   69   70 2
 141   71   72 1
 142   71  141 1
 143   71  142 1
 144   72   73 am
 145   72   76 2
 146   73  143 1
 147   73  144 1

#	End of record

