#	Name: ASD01410513
#	Creating user name:	WinNT
#	Creation time:	15. 06. 2019 19:18

#	Modifying user name:	WinNT
#	Modification time:	15. 06. 2019 19:18

#	Program:	/corina/corina34_cracker 3.40 0067  02.08.2006

@<TRIPOS>MOLECULE
ASD01410513
  64   67    0    0    0
SMALL
NO_CHARGES


@<TRIPOS>ATOM
   1 C1             2.0724     4.6826    -0.4943 C.ar    
   2 C2             2.5819     4.4797    -1.7693 C.ar    
   3 C3             3.6259     3.5933    -1.9465 C.ar    
   4 N4             4.1407     2.9413    -0.9217 N.ar    
   5 C5             3.6823     3.1078     0.3082 C.ar    
   6 C6             2.6340     3.9836     0.5600 C.ar    
   7 O7             4.2411     2.4164     1.3329 O.3     
   8 C8             5.1940     1.4926     1.0352 C.ar    
   9 C9             6.5050     1.8988     0.7992 C.ar    
  10 C10            7.4806     0.9672     0.4964 C.ar    
  11 C11            7.1583    -0.3802     0.4254 C.ar    
  12 C12            5.8381    -0.7950     0.6625 C.ar    
  13 C13            4.8595     0.1539     0.9737 C.ar    
  14 F14            6.8249     3.2097     0.8660 F       
  15 N15            8.1413    -1.3187     0.1194 N.am    
  16 C16            8.9858    -1.7472     1.0785 C.2     
  17 C17            8.2572    -1.8398    -1.2449 C.3     
  18 O18            9.9051    -2.4894     0.7917 O.2     
  19 C19            8.7945    -1.3155     2.4768 C.ar    
  20 C20            7.6161    -0.6682     2.8566 C.ar    
  21 C21            7.4433    -0.2674     4.1636 C.ar    
  22 C22            8.4352    -0.5041     5.1025 C.ar    
  23 C23            9.6058    -1.1440     4.7356 C.ar    
  24 C24            9.7899    -1.5576     3.4294 C.ar    
  25 C25            2.0017     5.2184    -2.9478 C.3     
  26 N26            2.7174     6.4834    -3.1317 N.pl3   
  27 C27            9.5778    -1.3712    -1.8593 C.3     
  28 C28            8.2246    -3.3690    -1.2112 C.3     
  29 Cl29           8.2078     0.0053     6.7464 Cl      
  30 C30           10.7698     0.5973    -2.5297 C.3     
  31 O31            9.5749     0.0539    -1.9648 O.3     
  32 N32            2.3887     7.5961    -2.5771 N.2     
  33 N33            3.7632     6.6311    -3.8654 N.2     
  34 C34            4.1462     7.8864    -3.8057 C.2     
  35 C35            3.2392     8.5232    -2.9556 C.2     
  36 F36           10.9330    -2.1824     3.0712 F       
  37 C37            5.4869    -2.2231     0.5888 C.2     
  38 O38            6.3594    -3.0568     0.4449 O.2     
  39 O39            4.1979    -2.6057     0.6808 O.3     
  40 C40            2.1154     4.1705     1.9626 C.3     
  41 F41            1.0670     5.0968     1.9526 F       
  42 F42            1.6512     2.9461     2.4552 F       
  43 F43            3.1466     4.6421     2.7821 F       
  44 H44            1.2591     5.3736    -0.3281 H       
  45 H45            4.0258     3.4315    -2.9366 H       
  46 H46            8.4954     1.2891     0.3145 H       
  47 H47            3.8421    -0.1585     1.1572 H       
  48 H48            7.4259    -1.4718    -1.8462 H       
  49 H49            6.8419    -0.4819     2.1269 H       
  50 H50            6.5324     0.2329     4.4572 H       
  51 H51           10.3749    -1.3247     5.4719 H       
  52 H52            2.1049     4.6087    -3.8454 H       
  53 H53            0.9463     5.4212    -2.7657 H       
  54 H54           10.4060    -1.6869    -1.2249 H       
  55 H55            9.6925    -1.8087    -2.8510 H       
  56 H56            7.2258    -3.7051    -0.9327 H       
  57 H57            8.4778    -3.7597    -2.1968 H       
  58 H58            8.9471    -3.7318    -0.4800 H       
  59 H59           11.6227     0.3224    -1.9091 H       
  60 H60           10.9093     0.2006    -3.5353 H       
  61 H61           10.6888     1.6833    -2.5755 H       
  62 H62            4.9912     8.3335    -4.3082 H       
  63 H63            3.2370     9.5644    -2.6688 H       
  64 H64            4.0164    -3.5540     0.6270 H       
@<TRIPOS>BOND
   1    1    2 ar
   2    1    6 ar
   3    1   44 1
   4    2    3 ar
   5    2   25 1
   6    3    4 ar
   7    3   45 1
   8    4    5 ar
   9    5    6 ar
  10    5    7 1
  11    6   40 1
  12    7    8 1
  13    8    9 ar
  14    8   13 ar
  15    9   10 ar
  16    9   14 1
  17   10   11 ar
  18   10   46 1
  19   11   12 ar
  20   11   15 1
  21   12   13 ar
  22   12   37 1
  23   13   47 1
  24   15   16 am
  25   15   17 1
  26   16   18 2
  27   16   19 1
  28   17   28 1
  29   17   27 1
  30   17   48 1
  31   19   20 ar
  32   19   24 ar
  33   20   21 ar
  34   20   49 1
  35   21   22 ar
  36   21   50 1
  37   22   23 ar
  38   22   29 1
  39   23   24 ar
  40   23   51 1
  41   24   36 1
  42   25   26 1
  43   25   52 1
  44   25   53 1
  45   26   33 1
  46   26   32 1
  47   27   31 1
  48   27   54 1
  49   27   55 1
  50   28   56 1
  51   28   57 1
  52   28   58 1
  53   30   31 1
  54   30   59 1
  55   30   60 1
  56   30   61 1
  57   32   35 2
  58   33   34 2
  59   34   35 1
  60   34   62 1
  61   35   63 1
  62   37   38 2
  63   37   39 1
  64   39   64 1
  65   40   41 1
  66   40   42 1
  67   40   43 1

#	End of record

