#	Name: ASD02039328
#	Creating user name:	WinNT
#	Creation time:	15. 06. 2019 20:18

#	Modifying user name:	WinNT
#	Modification time:	15. 06. 2019 20:18

#	Program:	/corina/corina34_cracker 3.40 0067  02.08.2006

@<TRIPOS>MOLECULE
ASD02039328
  47   49    0    0    0
SMALL
NO_CHARGES


@<TRIPOS>ATOM
   1 C1            -0.2113     1.3543     0.3610 C.ar    
   2 C2             0.0573    -0.0025     0.3858 C.ar    
   3 C3            -0.9787    -0.9180     0.4120 C.ar    
   4 C4            -2.5659     0.8876     0.4001 C.ar    
   5 C5            -1.5163     1.8034     0.3680 C.ar    
   6 C6            -3.9701     1.3644     0.4077 C.ar    
   7 C7             0.9242     2.3447     0.3326 C.3     
   8 N8             1.3764     2.5297    -1.0486 N.am    
   9 C9             0.6841     3.4775    -1.9253 C.3     
  10 C10            2.4292     1.8278    -1.5127 C.2     
  11 C11            3.0590     0.7989    -0.6670 C.2     
  12 C12            4.0466    -0.0626    -1.0459 C.2     
  13 N13            2.7665     0.5393     0.6330 N.2     
  14 C14            3.5235    -0.4348     1.0484 C.2     
  15 N15            4.3307    -0.8326     0.0307 N.pl3   
  16 O16            2.8594     2.0439    -2.6296 O.2     
  17 C17            5.3290    -1.9033     0.0879 C.3     
  18 C18           -4.2358     2.7293     0.5026 C.ar    
  19 C19           -2.2903    -0.4809     0.4135 C.ar    
  20 C20            1.6337     4.6196    -2.2925 C.3     
  21 C21            0.2340     2.7590    -3.1989 C.3     
  22 F22           -3.3024    -1.3755     0.4387 F       
  23 N23           -4.9625     0.4886     0.3187 N.ar    
  24 C24           -6.2235     0.8706     0.3215 C.ar    
  25 C25           -6.5597     2.2092     0.4182 C.ar    
  26 C26           -5.5507     3.1597     0.5081 C.ar    
  27 Cl27          -8.2258     2.6967     0.4206 Cl      
  28 H28            1.0805    -0.3482     0.3844 H       
  29 H29           -0.7629    -1.9761     0.4310 H       
  30 H30           -1.7235     2.8633     0.3575 H       
  31 H31            0.5840     3.2991     0.7344 H       
  32 H32            1.7492     1.9691     0.9378 H       
  33 H33           -0.1867     3.8809    -1.4086 H       
  34 H34            4.5123    -0.1198    -2.0187 H       
  35 H35            3.5136    -0.8566     2.0426 H       
  36 H36            4.8653    -2.8479    -0.1962 H       
  37 H37            6.1439    -1.6773    -0.5998 H       
  38 H38            5.7205    -1.9813     1.1021 H       
  39 H39           -3.4264     3.4411     0.5713 H       
  40 H40            2.4327     4.2377    -2.9279 H       
  41 H41            1.0822     5.3928    -2.8274 H       
  42 H42            2.0625     5.0420    -1.3837 H       
  43 H43           -0.3570     1.8829    -2.9322 H       
  44 H44           -0.3709     3.4352    -3.8030 H       
  45 H45            1.1093     2.4472    -3.7688 H       
  46 H46           -7.0051     0.1290     0.2470 H       
  47 H47           -5.7874     4.2106     0.5849 H       
@<TRIPOS>BOND
   1    1    2 ar
   2    1    7 1
   3    1    5 ar
   4    2    3 ar
   5    2   28 1
   6    3   19 ar
   7    3   29 1
   8    4    5 ar
   9    4    6 1
  10    4   19 ar
  11    5   30 1
  12    6   18 ar
  13    6   23 ar
  14    7    8 1
  15    7   31 1
  16    7   32 1
  17    8    9 1
  18    8   10 am
  19    9   21 1
  20    9   20 1
  21    9   33 1
  22   10   11 1
  23   10   16 2
  24   11   12 2
  25   11   13 1
  26   12   15 1
  27   12   34 1
  28   13   14 2
  29   14   15 1
  30   14   35 1
  31   15   17 1
  32   17   36 1
  33   17   37 1
  34   17   38 1
  35   18   26 ar
  36   18   39 1
  37   19   22 1
  38   20   40 1
  39   20   41 1
  40   20   42 1
  41   21   43 1
  42   21   44 1
  43   21   45 1
  44   23   24 ar
  45   24   25 ar
  46   24   46 1
  47   25   26 ar
  48   25   27 1
  49   26   47 1

#	End of record

