#	Name: ASD01940367
#	Creating user name:	WinNT
#	Creation time:	15. 06. 2019 20:12

#	Modifying user name:	WinNT
#	Modification time:	15. 06. 2019 20:12

#	Program:	/corina/corina34_cracker 3.40 0067  02.08.2006

@<TRIPOS>MOLECULE
ASD01940367
  40   41    0    0    0
SMALL
NO_CHARGES


@<TRIPOS>ATOM
   1 C1             0.3981     1.6518    -0.1640 C.3     
   2 C2             0.5043     0.1272    -0.2361 C.3     
   3 N3            -0.8394    -0.4515    -0.3682 N.3     
   4 C4            -0.7765    -1.9174    -0.4405 C.3     
   5 S5             2.0574     2.3665    -0.0009 S.o2    
   6 O6             2.6149     2.0482     1.2668 O.2     
   7 O7             2.8014     2.1777    -1.1967 O.2     
   8 N8             1.7987     4.0008     0.0654 N.am    
   9 C9             1.0311     4.5471     1.1027 C.ar    
  10 C10            0.2007     5.6398     0.8563 C.ar    
  11 C11           -0.5579     6.1767     1.8874 C.ar    
  12 C12           -0.4877     5.6256     3.1574 C.ar    
  13 C13            0.3376     4.5414     3.3995 C.ar    
  14 C14            1.0915     3.9987     2.3746 C.ar    
  15 N15            0.1324     6.1949    -0.4290 N.pl3   
  16 C16           -0.3752     7.4857    -0.6071 C.ar    
  17 C17            0.3786     8.5905    -0.2231 C.ar    
  18 C18           -0.1267     9.8648    -0.4014 C.ar    
  19 C19           -1.3803    10.0411    -0.9604 C.ar    
  20 C20           -2.1312     8.9444    -1.3422 C.ar    
  21 C21           -1.6298     7.6680    -1.1727 C.ar    
  22 I22           -2.1426    11.9741    -1.2281 I       
  23 F23            1.6020     8.4181     0.3234 F       
  24 F24           -1.2260     6.1483     4.1609 F       
  25 F25           -1.3636     7.2356     1.6535 F       
  26 H26           -0.0712     2.0268    -1.0736 H       
  27 H27           -0.2053     1.9336     0.6989 H       
  28 H28            1.1077    -0.1546    -1.0990 H       
  29 H29            0.9736    -0.2477     0.6734 H       
  30 H30           -1.4379    -0.1521     0.3869 H       
  31 H31           -1.7847    -2.3200    -0.5380 H       
  32 H32           -0.1819    -2.2134    -1.3048 H       
  33 H33           -0.3161    -2.3065     0.4676 H       
  34 H34            2.1785     4.5799    -0.6137 H       
  35 H35            0.3902     4.1153     4.3905 H       
  36 H36            1.7307     3.1495     2.5662 H       
  37 H37            0.4372     5.6836    -1.1949 H       
  38 H38            0.4571    10.7233    -0.1039 H       
  39 H39           -3.1094     9.0859    -1.7775 H       
  40 H40           -2.2155     6.8127    -1.4755 H       
@<TRIPOS>BOND
   1    1    2 1
   2    1    5 1
   3    1   26 1
   4    1   27 1
   5    2    3 1
   6    2   28 1
   7    2   29 1
   8    3    4 1
   9    3   30 1
  10    4   31 1
  11    4   32 1
  12    4   33 1
  13    5    6 2
  14    5    7 2
  15    5    8 am
  16    8    9 1
  17    8   34 1
  18    9   10 ar
  19    9   14 ar
  20   10   11 ar
  21   10   15 1
  22   11   12 ar
  23   11   25 1
  24   12   13 ar
  25   12   24 1
  26   13   14 ar
  27   13   35 1
  28   14   36 1
  29   15   16 1
  30   15   37 1
  31   16   17 ar
  32   16   21 ar
  33   17   18 ar
  34   17   23 1
  35   18   19 ar
  36   18   38 1
  37   19   20 ar
  38   19   22 1
  39   20   21 ar
  40   20   39 1
  41   21   40 1

#	End of record

