#	Name: ASD05300034
#	Creating user name:	WinNT
#	Creation time:	15. 06. 2019 20:58

#	Modifying user name:	WinNT
#	Modification time:	15. 06. 2019 20:58

#	Program:	/corina/corina34_cracker 3.40 0067  02.08.2006

@<TRIPOS>MOLECULE
ASD05300034
  33   36    0    0    0
SMALL
NO_CHARGES


@<TRIPOS>ATOM
   1 Br1           -6.2047    -1.9135    -1.4389 Br      
   2 O2            -0.0163     1.3515     0.0095 O.3     
   3 O3             1.5171    -3.8538     0.5551 O.2     
   4 N4             1.7407    -1.7475    -0.0396 N.am    
   5 N5            -1.2187    -1.9831     0.6772 N.2     
   6 C6             1.2959    -0.4325    -0.0171 C.2     
   7 C7             0.0021    -0.0041     0.0020 C.2     
   8 C8             2.1308     0.7734    -0.0161 C.ar    
   9 C9             1.2330     1.8554     0.0003 C.ar    
  10 C10           -1.1872    -0.8619     0.0203 C.2     
  11 C11           -2.3907    -0.4374    -0.7342 C.ar    
  12 C12            3.5063     1.0046    -0.0282 C.ar    
  13 C13           -0.0936    -2.4331     1.4891 C.3     
  14 C14            1.7350     3.1513     0.0027 C.ar    
  15 C15            1.1074    -2.7151     0.6360 C.2     
  16 C16            3.9784     2.2878    -0.0261 C.ar    
  17 C17            3.0978     3.3598    -0.0105 C.ar    
  18 C18           -3.5340    -1.2347    -0.7336 C.ar    
  19 C19           -2.3850     0.7638    -1.4425 C.ar    
  20 C20           -4.6522    -0.8337    -1.4380 C.ar    
  21 C21           -3.5079     1.1544    -2.1427 C.ar    
  22 C22           -4.6383     0.3568    -2.1436 C.ar    
  23 H23            2.5296    -1.9711    -0.5578 H       
  24 H24            4.1956     0.1733    -0.0391 H       
  25 H25            0.1565    -1.6589     2.2144 H       
  26 H26           -0.3765    -3.3419     2.0203 H       
  27 H27            1.0589     3.9935     0.0146 H       
  28 H28            5.0432     2.4680    -0.0358 H       
  29 H29            3.4840     4.3684    -0.0089 H       
  30 H30           -3.5453    -2.1642    -0.1838 H       
  31 H31           -1.5033     1.3875    -1.4427 H       
  32 H32           -3.5043     2.0846    -2.6914 H       
  33 H33           -5.5148     0.6666    -2.6935 H       
@<TRIPOS>BOND
   1    1   20 1
   2    2    7 1
   3    2    9 1
   4    3   15 2
   5    4    6 1
   6    4   15 am
   7    4   23 1
   8    5   10 2
   9    5   13 1
  10    6    7 2
  11    6    8 1
  12    7   10 1
  13    8    9 ar
  14    8   12 ar
  15    9   14 ar
  16   10   11 1
  17   11   18 ar
  18   11   19 ar
  19   12   16 ar
  20   12   24 1
  21   13   15 1
  22   13   25 1
  23   13   26 1
  24   14   17 ar
  25   14   27 1
  26   16   17 ar
  27   16   28 1
  28   17   29 1
  29   18   20 ar
  30   18   30 1
  31   19   21 ar
  32   19   31 1
  33   20   22 ar
  34   21   22 ar
  35   21   32 1
  36   22   33 1

#	End of record

