#	Name: ASD02030092
#	Creating user name:	WinNT
#	Creation time:	15. 06. 2019 20:14

#	Modifying user name:	WinNT
#	Modification time:	15. 06. 2019 20:14

#	Program:	/corina/corina34_cracker 3.40 0067  02.08.2006

@<TRIPOS>MOLECULE
ASD02030092
  59   62    0    0    0
SMALL
NO_CHARGES


@<TRIPOS>ATOM
   1 C1             4.5441     5.6475     1.9491 C.ar    
   2 C2             3.2709     6.1522     2.1370 C.ar    
   3 C3             2.1750     5.4591     1.6580 C.ar    
   4 C4             2.3523     4.2615     0.9908 C.ar    
   5 C5             3.6255     3.7572     0.8021 C.ar    
   6 C6             4.7213     4.4497     1.2823 C.ar    
   7 S7             3.8513     2.2302    -0.0475 S.o2    
   8 N8             4.1643     2.5927    -1.6327 N.am    
   9 C9             3.2165     3.2707    -2.3909 C.ar    
  10 O10            5.0402     1.6527     0.4744 O.2     
  11 O11            2.5931     1.5701    -0.0277 O.2     
  12 C12            3.6037     4.3437    -3.1849 C.ar    
  13 C13            2.6609     5.0182    -3.9399 C.ar    
  14 C14            1.3168     4.6121    -3.8976 C.ar    
  15 C15            0.9433     3.5298    -3.0931 C.ar    
  16 C16            1.8827     2.8682    -2.3565 C.ar    
  17 C17            0.3059     5.3220    -4.6957 C.2     
  18 O18           -0.9832     4.9302    -4.6533 O.3     
  19 O19            0.6328     6.2621    -5.3935 O.2     
  20 C20           -1.9262     5.6769    -5.4667 C.3     
  21 C21           -2.5443     6.8393    -4.6507 C.3     
  22 C22           -3.8777     7.1062    -5.3922 C.3     
  23 C23           -4.3749     5.7022    -5.7938 C.3     
  24 C24           -3.1341     4.7934    -5.8412 C.3     
  25 N25           -2.9601     4.2515    -7.1911 N.am    
  26 C26           -3.5996     3.1211    -7.5511 C.2     
  27 O27           -4.3205     2.5514    -6.7559 O.2     
  28 C28           -3.4237     2.5732    -8.9162 C.ar    
  29 C29           -4.0778     1.4019    -9.3101 C.ar    
  30 C30           -3.8857     0.9264   -10.5929 C.ar    
  31 N31           -3.0990     1.5608   -11.4391 N.ar    
  32 C32           -2.4639     2.6676   -11.1086 C.ar    
  33 C33           -2.6036     3.2161    -9.8483 C.ar    
  34 O34            3.0324     6.0665    -4.7165 O.3     
  35 N35            3.0811     7.4345     2.8515 N.pl3   
  36 O36            4.0467     8.0451     3.2739 O.2     
  37 O37            1.9593     7.8792     3.0171 O.2     
  38 H38            5.4006     6.1913     2.3194 H       
  39 H39            1.1803     5.8530     1.8055 H       
  40 H40            1.4960     3.7196     0.6172 H       
  41 H41            5.7160     4.0559     1.1346 H       
  42 H42            5.0089     2.3321    -2.0322 H       
  43 H43            4.6388     4.6506    -3.2122 H       
  44 H44           -0.0892     3.2150    -3.0583 H       
  45 H45            1.5894     2.0335    -1.7371 H       
  46 H46           -1.4372     6.0580    -6.3632 H       
  47 H47           -2.7294     6.5329    -3.6212 H       
  48 H48           -1.9013     7.7189    -4.6834 H       
  49 H49           -4.5940     7.5888    -4.7273 H       
  50 H50           -3.7059     7.7179    -6.2779 H       
  51 H51           -5.0820     5.3303    -5.0524 H       
  52 H52           -4.8476     5.7401    -6.7752 H       
  53 H53           -3.2391     3.9804    -5.1227 H       
  54 H54           -2.3846     4.7064    -7.8258 H       
  55 H55           -4.7233     0.8766    -8.6218 H       
  56 H56           -4.3866     0.0225   -10.9065 H       
  57 H57           -1.8292     3.1544   -11.8341 H       
  58 H58           -2.0805     4.1234    -9.5844 H       
  59 H59            3.2858     5.8190    -5.6163 H       
@<TRIPOS>BOND
   1    1    2 ar
   2    1    6 ar
   3    1   38 1
   4    2    3 ar
   5    2   35 1
   6    3    4 ar
   7    3   39 1
   8    4    5 ar
   9    4   40 1
  10    5    6 ar
  11    5    7 1
  12    6   41 1
  13    7    8 am
  14    7   10 2
  15    7   11 2
  16    8    9 1
  17    8   42 1
  18    9   12 ar
  19    9   16 ar
  20   12   13 ar
  21   12   43 1
  22   13   14 ar
  23   13   34 1
  24   14   15 ar
  25   14   17 1
  26   15   16 ar
  27   15   44 1
  28   16   45 1
  29   17   18 1
  30   17   19 2
  31   18   20 1
  32   20   21 1
  33   20   24 1
  34   20   46 1
  35   21   22 1
  36   21   47 1
  37   21   48 1
  38   22   23 1
  39   22   49 1
  40   22   50 1
  41   23   24 1
  42   23   51 1
  43   23   52 1
  44   24   25 1
  45   24   53 1
  46   25   26 am
  47   25   54 1
  48   26   27 2
  49   26   28 1
  50   28   29 ar
  51   28   33 ar
  52   29   30 ar
  53   29   55 1
  54   30   31 ar
  55   30   56 1
  56   31   32 ar
  57   32   33 ar
  58   32   57 1
  59   33   58 1
  60   34   59 1
  61   35   36 2
  62   35   37 2

#	End of record

