#	Name: ASD01140273
#	Creating user name:	WinNT
#	Creation time:	15. 06. 2019 19:00

#	Modifying user name:	WinNT
#	Modification time:	15. 06. 2019 19:00

#	Program:	/corina/corina34_cracker 3.40 0067  02.08.2006

@<TRIPOS>MOLECULE
ASD01140273
  33   35    0    0    0
SMALL
NO_CHARGES


@<TRIPOS>ATOM
   1 C1            -0.0167     1.3786     0.0096 C.ar    
   2 C2             0.0021    -0.0041     0.0020 C.ar    
   3 C3             1.2147    -0.6842    -0.0136 C.ar    
   4 C4             2.4090     0.0069    -0.0186 C.ar    
   5 C5             2.4117     1.3952    -0.0073 C.ar    
   6 C6             1.1885     2.0837     0.0019 C.ar    
   7 C7             1.1975     3.5573    -0.0013 C.2     
   8 O8             3.5865     2.0689     0.0007 O.3     
   9 C9             3.6069     3.4180    -0.4649 C.3     
  10 C10            2.5318     4.2280     0.2731 C.3     
  11 C11            4.9621     4.0212    -0.1992 C.ar    
  12 C12            5.5029     4.9266    -1.0929 C.ar    
  13 C13            6.7460     5.4799    -0.8492 C.ar    
  14 C14            7.4483     5.1279     0.2883 C.ar    
  15 C15            6.9071     4.2231     1.1824 C.ar    
  16 C16            5.6621     3.6732     0.9409 C.ar    
  17 O17           -1.1666    -0.6993     0.0103 O.3     
  18 C18           -1.0733    -2.1252     0.0017 C.3     
  19 O19            0.1913     4.2011    -0.2125 O.2     
  20 H20           -0.9571     1.9095     0.0170 H       
  21 H21            1.2219    -1.7642    -0.0216 H       
  22 H22            3.3441    -0.5334    -0.0310 H       
  23 H23            3.4038     3.4364    -1.5356 H       
  24 H24            2.5164     5.2520    -0.1001 H       
  25 H25            2.7356     4.2250     1.3438 H       
  26 H26            4.9542     5.2016    -1.9816 H       
  27 H27            7.1688     6.1868    -1.5478 H       
  28 H28            8.4198     5.5596     0.4783 H       
  29 H29            7.4559     3.9479     2.0709 H       
  30 H30            5.2377     2.9691     1.6413 H       
  31 H31           -0.5461    -2.4494    -0.8955 H       
  32 H32           -0.5278    -2.4590     0.8843 H       
  33 H33           -2.0750    -2.5549     0.0097 H       
@<TRIPOS>BOND
   1    1    2 ar
   2    1    6 ar
   3    1   20 1
   4    2    3 ar
   5    2   17 1
   6    3    4 ar
   7    3   21 1
   8    4    5 ar
   9    4   22 1
  10    5    6 ar
  11    5    8 1
  12    6    7 1
  13    7   10 1
  14    7   19 2
  15    8    9 1
  16    9   10 1
  17    9   11 1
  18    9   23 1
  19   10   24 1
  20   10   25 1
  21   11   12 ar
  22   11   16 ar
  23   12   13 ar
  24   12   26 1
  25   13   14 ar
  26   13   27 1
  27   14   15 ar
  28   14   28 1
  29   15   16 ar
  30   15   29 1
  31   16   30 1
  32   17   18 1
  33   18   31 1
  34   18   32 1
  35   18   33 1

#	End of record

