#	Name: ASD09080040
#	Creating user name:	WinNT
#	Creation time:	15. 06. 2019 21:20

#	Modifying user name:	WinNT
#	Modification time:	15. 06. 2019 21:20

#	Program:	/corina/corina34_cracker 3.40 0067  02.08.2006

@<TRIPOS>MOLECULE
ASD09080040
  48   48    0    0    0
SMALL
NO_CHARGES


@<TRIPOS>ATOM
   1 C1            -0.0167     1.3780     0.0096 C.ar    
   2 C2             0.0021    -0.0041     0.0020 C.ar    
   3 C3             1.2093    -0.6791    -0.0131 C.ar    
   4 C4             2.3974     0.0294    -0.0206 C.ar    
   5 C5             2.3776     1.4114    -0.0130 C.ar    
   6 C6             1.1709     2.0856     0.0021 C.ar    
   7 C7             1.1499     3.5924     0.0104 C.3     
   8 C8             1.1291     4.1101    -1.4292 C.3     
   9 C9             0.9844     5.6101    -1.4216 C.2     
  10 C10            1.8729     6.3676    -2.0602 C.2     
  11 Br11           1.2357    -2.5699    -0.0229 Br      
  12 N12            2.3799     3.7436    -2.0981 N.am    
  13 O13            4.7073     3.8450    -2.2262 O.3     
  14 C14            5.9381     4.3528    -1.6468 C.3     
  15 C15            6.0746     3.8419    -0.2111 C.3     
  16 C16            7.1296     3.8691    -2.4757 C.3     
  17 C17            5.9069     5.8825    -1.6429 C.3     
  18 C18            3.5578     4.1819    -1.6115 C.2     
  19 O19            3.5824     4.8810    -0.6180 O.2     
  20 C20            1.7318     7.8303    -2.0527 C.2     
  21 O21            0.8036     8.3483    -1.4634 O.2     
  22 O22            2.6318     8.5976    -2.6995 O.3     
  23 C23            3.5420    10.7334    -3.4344 C.3     
  24 C24            2.4298    10.0346    -2.6499 C.3     
  25 H25           -0.9593     1.9051     0.0169 H       
  26 H26           -0.9257    -0.5568     0.0082 H       
  27 H27            3.3402    -0.4972    -0.0321 H       
  28 H28            3.3052     1.9647    -0.0185 H       
  29 H29            0.2599     3.9405     0.5346 H       
  30 H30            2.0396     3.9654     0.5178 H       
  31 H31            0.2883     3.6667    -1.9627 H       
  32 H32            0.1596     6.0704    -0.8979 H       
  33 H33            2.6977     5.9074    -2.5839 H       
  34 H34            2.3603     3.1855    -2.8912 H       
  35 H35            6.0969     2.7521    -0.2138 H       
  36 H36            6.9985     4.2231     0.2239 H       
  37 H37            5.2258     4.1865     0.3795 H       
  38 H38            7.0323     4.2331    -3.4986 H       
  39 H39            8.0535     4.2503    -2.0408 H       
  40 H40            7.1518     2.7793    -2.4785 H       
  41 H41            5.0580     6.2271    -1.0524 H       
  42 H42            6.8308     6.2637    -1.2080 H       
  43 H43            5.8096     6.2465    -2.6658 H       
  44 H44            4.5078    10.4869    -2.9934 H       
  45 H45            3.5202    10.3991    -4.4716 H       
  46 H46            3.3903    11.8122    -3.3971 H       
  47 H47            1.4639    10.2812    -3.0909 H       
  48 H48            2.4515    10.3689    -1.6126 H       
@<TRIPOS>BOND
   1    1    2 ar
   2    1    6 ar
   3    1   25 1
   4    2    3 ar
   5    2   26 1
   6    3    4 ar
   7    3   11 1
   8    4    5 ar
   9    4   27 1
  10    5    6 ar
  11    5   28 1
  12    6    7 1
  13    7    8 1
  14    7   29 1
  15    7   30 1
  16    8    9 1
  17    8   12 1
  18    8   31 1
  19    9   10 2
  20    9   32 1
  21   10   20 1
  22   10   33 1
  23   12   18 am
  24   12   34 1
  25   13   14 1
  26   13   18 1
  27   14   15 1
  28   14   16 1
  29   14   17 1
  30   15   35 1
  31   15   36 1
  32   15   37 1
  33   16   38 1
  34   16   39 1
  35   16   40 1
  36   17   41 1
  37   17   42 1
  38   17   43 1
  39   18   19 2
  40   20   21 2
  41   20   22 1
  42   22   24 1
  43   23   24 1
  44   23   44 1
  45   23   45 1
  46   23   46 1
  47   24   47 1
  48   24   48 1

#	End of record

