#	Name: ASD01910445
#	Creating user name:	WinNT
#	Creation time:	15. 06. 2019 19:55

#	Modifying user name:	WinNT
#	Modification time:	15. 06. 2019 19:55

#	Program:	/corina/corina34_cracker 3.40 0067  02.08.2006

@<TRIPOS>MOLECULE
ASD01910445
  41   44    0    0    0
SMALL
NO_CHARGES


@<TRIPOS>ATOM
   1 C1            -0.0183     1.4129     0.0881 C.ar    
   2 C2            -0.0072     0.0274     0.0751 C.ar    
   3 C3             1.1958    -0.6595     0.0409 C.ar    
   4 C4             2.3881     0.0342     0.0201 C.ar    
   5 C5             2.3814     1.4277     0.0330 C.ar    
   6 C6             1.1694     2.1145     0.0669 C.ar    
   7 F7            -1.1725    -0.6558     0.0964 F       
   8 C8             3.6614     2.1780     0.0112 C.2     
   9 N9             3.8039     3.5227     0.0203 N.2     
  10 C10            5.0952     3.7398    -0.0059 C.2     
  11 O11            5.6948     2.5454    -0.0298 O.3     
  12 N12            4.8631     1.6627    -0.0148 N.2     
  13 C13            5.7771     5.0838    -0.0090 C.3     
  14 C14            6.6784     5.2021     1.2222 C.3     
  15 C15            7.3459     6.5791     1.2373 C.3     
  16 C16            8.2148     6.7348    -0.0147 C.3     
  17 N17            7.3857     6.4791    -1.2005 N.am    
  18 C18            6.6281     5.2224    -1.2752 C.3     
  19 C19            7.3213     7.3802    -2.2006 C.2     
  20 C20            6.5933     7.0547    -3.4400 C.2     
  21 O21            7.8639     8.4619    -2.0804 O.2     
  22 C22            6.4882     5.7401    -4.0898 C.2     
  23 C23            5.7312     5.9278    -5.1817 C.2     
  24 O24            5.3729     7.2194    -5.2515 O.3     
  25 C25            5.8712     7.9090    -4.2208 C.2     
  26 H26           -0.9582     1.9444     0.1102 H       
  27 H27            1.2000    -1.7394     0.0309 H       
  28 H28            3.3253    -0.5019    -0.0058 H       
  29 H29            1.1598     3.1944     0.0767 H       
  30 H30            5.0256     5.8730     0.0131 H       
  31 H31            6.0790     5.0792     2.1242 H       
  32 H32            7.4445     4.4275     1.1872 H       
  33 H33            6.5801     7.3546     1.2474 H       
  34 H34            7.9695     6.6714     2.1266 H       
  35 H35            8.6134     7.7483    -0.0592 H       
  36 H36            9.0355     6.0182     0.0186 H       
  37 H37            7.3194     4.3826    -1.3446 H       
  38 H38            5.9798     5.2381    -2.1513 H       
  39 H39            6.9306     4.8128    -3.7568 H       
  40 H40            5.4547     5.1620    -5.8912 H       
  41 H41            5.7317     8.9647    -4.0405 H       
@<TRIPOS>BOND
   1    1    2 ar
   2    1    6 ar
   3    1   26 1
   4    2    3 ar
   5    2    7 1
   6    3    4 ar
   7    3   27 1
   8    4    5 ar
   9    4   28 1
  10    5    6 ar
  11    5    8 1
  12    6   29 1
  13    8    9 1
  14    8   12 2
  15    9   10 2
  16   10   11 1
  17   10   13 1
  18   11   12 1
  19   13   14 1
  20   13   18 1
  21   13   30 1
  22   14   15 1
  23   14   31 1
  24   14   32 1
  25   15   16 1
  26   15   33 1
  27   15   34 1
  28   16   17 1
  29   16   35 1
  30   16   36 1
  31   17   18 1
  32   17   19 am
  33   18   37 1
  34   18   38 1
  35   19   20 1
  36   19   21 2
  37   20   22 1
  38   20   25 2
  39   22   23 2
  40   22   39 1
  41   23   24 1
  42   23   40 1
  43   24   25 1
  44   25   41 1

#	End of record

