#	Name: ASD01912282
#	Creating user name:	WinNT
#	Creation time:	15. 06. 2019 19:59

#	Modifying user name:	WinNT
#	Modification time:	15. 06. 2019 19:59

#	Program:	/corina/corina34_cracker 3.40 0067  02.08.2006

@<TRIPOS>MOLECULE
ASD01912282
  51   52    0    0    0
SMALL
NO_CHARGES


@<TRIPOS>ATOM
   1 N1             0.0974     1.4267     0.2457 N.am    
   2 C2             0.2442     0.0362     0.6946 C.3     
   3 C3             0.8553    -0.7887    -0.4452 C.3     
   4 C4             2.0731    -0.0570    -0.9654 C.2     
   5 C5             1.9210     1.3909    -1.3770 C.3     
   6 C6             1.2832     2.1611    -0.2138 C.3     
   7 C7            -1.1126     2.0203     0.2502 C.2     
   8 O8            -2.1216     1.3434     0.2971 O.2     
   9 N9            -1.2043     3.3641     0.2025 N.am    
  10 C10            3.2509    -0.6727    -1.0584 C.2     
  11 C11            4.3924     0.0364    -1.5532 C.1     
  12 C12            5.3282     0.6178    -1.9588 C.1     
  13 C13            6.4697     1.3269    -2.4536 C.ar    
  14 C14            7.7033     0.6762    -2.5491 C.ar    
  15 C15            8.7954     1.3754    -3.0289 C.ar    
  16 C16            8.6234     2.7028    -3.3989 C.ar    
  17 C17            7.3750     3.2857    -3.2788 C.ar    
  18 N18            6.3476     2.5983    -2.8241 N.ar    
  19 C19            7.1861     4.7261    -3.6798 C.3     
  20 C20           -2.5139     4.0043     0.0568 C.3     
  21 C21           -2.8500     4.7747     1.3353 C.3     
  22 C22           -2.4795     4.9720    -1.1277 C.3     
  23 C23            0.0058     4.1845     0.2964 C.3     
  24 C24            0.3666     4.7217    -1.0900 C.3     
  25 H25            0.9005     0.0003     1.5642 H       
  26 H26           -0.7336    -0.3688     0.9553 H       
  27 H27            1.1484    -1.7699    -0.0719 H       
  28 H28            0.1258    -0.9035    -1.2470 H       
  29 H29            2.9001     1.8128    -1.6035 H       
  30 H30            1.2800     1.4571    -2.2562 H       
  31 H31            0.9894     3.1551    -0.5512 H       
  32 H32            1.9992     2.2472     0.6036 H       
  33 H33            3.3449    -1.7066    -0.7605 H       
  34 H34            7.8019    -0.3574    -2.2521 H       
  35 H35            9.7613     0.8997    -3.1138 H       
  36 H36            9.4575     3.2753    -3.7769 H       
  37 H37            6.9101     4.7768    -4.7330 H       
  38 H38            6.3957     5.1709    -3.0752 H       
  39 H39            8.1159     5.2723    -3.5211 H       
  40 H40           -3.2733     3.2423    -0.1184 H       
  41 H41           -2.0905     5.5367     1.5105 H       
  42 H42           -3.8244     5.2510     1.2269 H       
  43 H43           -2.8744     4.0853     2.1791 H       
  44 H44           -2.2401     4.4231    -2.0385 H       
  45 H45           -3.4539     5.4484    -1.2361 H       
  46 H46           -1.7201     5.7340    -0.9525 H       
  47 H47           -0.1729     5.0192     0.9742 H       
  48 H48            0.8277     3.5776     0.6762 H       
  49 H49            0.4026     3.8965    -1.8013 H       
  50 H50           -0.3866     5.4427    -1.4077 H       
  51 H51            1.3410     5.2085    -1.0488 H       
@<TRIPOS>BOND
   1    1    2 1
   2    1    6 1
   3    1    7 am
   4    2    3 1
   5    2   25 1
   6    2   26 1
   7    3    4 1
   8    3   27 1
   9    3   28 1
  10    4    5 1
  11    4   10 2
  12    5    6 1
  13    5   29 1
  14    5   30 1
  15    6   31 1
  16    6   32 1
  17    7    8 2
  18    7    9 am
  19    9   20 1
  20    9   23 1
  21   10   11 1
  22   10   33 1
  23   11   12 3
  24   12   13 1
  25   13   14 ar
  26   13   18 ar
  27   14   15 ar
  28   14   34 1
  29   15   16 ar
  30   15   35 1
  31   16   17 ar
  32   16   36 1
  33   17   18 ar
  34   17   19 1
  35   19   37 1
  36   19   38 1
  37   19   39 1
  38   20   21 1
  39   20   22 1
  40   20   40 1
  41   21   41 1
  42   21   42 1
  43   21   43 1
  44   22   44 1
  45   22   45 1
  46   22   46 1
  47   23   24 1
  48   23   47 1
  49   23   48 1
  50   24   49 1
  51   24   50 1
  52   24   51 1

#	End of record

