#	Name: ASD02470003
#	Creating user name:	WinNT
#	Creation time:	15. 06. 2019 20:22

#	Modifying user name:	WinNT
#	Modification time:	15. 06. 2019 20:22

#	Program:	/corina/corina34_cracker 3.40 0067  02.08.2006

@<TRIPOS>MOLECULE
ASD02470003
  12   11    0    0    0
SMALL
NO_CHARGES


@<TRIPOS>ATOM
   1 C1            -0.0143     1.2041     0.0087 C.2     
   2 O2             0.0021    -0.0041     0.0020 O.2     
   3 C3             1.2804     1.9752     0.0004 C.3     
   4 O4            -1.1858     1.8593     0.0178 O.3     
   5 C5             1.4191     2.7530     1.3107 C.3     
   6 O6             2.3752     1.0666    -0.1323 O.3     
   7 H7             1.2829     2.6721    -0.8377 H       
   8 H8            -1.9895     1.3217     0.0187 H       
   9 H9             2.3555     3.3107     1.3048 H       
  10 H10            0.5840     3.4461     1.4120 H       
  11 H11            1.4166     2.0561     2.1489 H       
  12 H12            3.2423     1.4945    -0.1450 H       
@<TRIPOS>BOND
   1    1    2 2
   2    1    3 1
   3    1    4 1
   4    3    5 1
   5    3    6 1
   6    3    7 1
   7    4    8 1
   8    5    9 1
   9    5   10 1
  10    5   11 1
  11    6   12 1

#	End of record

