#	Name: ASD01914678
#	Creating user name:	WinNT
#	Creation time:	15. 06. 2019 20:04

#	Modifying user name:	WinNT
#	Modification time:	15. 06. 2019 20:04

#	Program:	/corina/corina34_cracker 3.40 0067  02.08.2006

@<TRIPOS>MOLECULE
ASD01914678
  57   62    0    0    0
SMALL
NO_CHARGES


@<TRIPOS>ATOM
   1 C1            -0.0171     1.4076     0.0098 C.2     
   2 C2             0.0021    -0.0041     0.0020 C.2     
   3 C3             1.1913    -0.6559    -0.0128 C.2     
   4 C4             2.3970     0.0897    -0.0203 C.2     
   5 C5             2.3551     1.4541    -0.0126 C.2     
   6 N6             1.1633     2.1074     0.0023 N.pl3   
   7 N7            -1.0112     2.2821     0.0293 N.2     
   8 C8            -0.5084     3.5197     0.0283 C.2     
   9 C9             0.8391     3.4385     0.0125 C.2     
  10 C10            3.6968    -0.6089    -0.0360 C.2     
  11 O11            4.7308     0.0309    -0.0425 O.2     
  12 N12            3.7378    -1.9560    -0.0432 N.am    
  13 C13            5.0282    -2.6495    -0.0588 C.3     
  14 C14            4.7945    -4.1615    -0.0642 C.3     
  15 C15            6.1422    -4.8858    -0.0804 C.3     
  16 C16            6.9445    -4.4982     1.1633 C.3     
  17 C17            7.1781    -2.9861     1.1688 C.3     
  18 C18            7.9571    -2.5859    -0.0858 C.3     
  19 C19            7.1548    -2.9735    -1.3296 C.3     
  20 C20            5.8072    -2.2493    -1.3133 C.3     
  21 C21            6.9211    -4.4856    -1.3350 C.3     
  22 C22            5.8305    -2.2619     1.1850 C.3     
  23 N23            5.9184    -6.3336    -0.0857 N.am    
  24 C24            6.9690    -7.1777    -0.0997 C.2     
  25 C25            6.7432    -8.6389    -0.1050 C.ar    
  26 C26            7.8290    -9.5156    -0.1196 C.ar    
  27 C27            7.6107   -10.8800    -0.1239 C.ar    
  28 C28            6.3169   -11.3767    -0.1139 C.ar    
  29 C29            5.2381   -10.5115    -0.0994 C.ar    
  30 C30            5.4435    -9.1470    -0.0896 C.ar    
  31 O31            8.1021    -6.7378    -0.1081 O.2     
  32 F32            8.6600   -11.7309    -0.1385 F       
  33 H33           -0.9234    -0.5607     0.0082 H       
  34 H34            1.2196    -1.7355    -0.0186 H       
  35 H35            3.2758     2.0187    -0.0180 H       
  36 H36           -1.0841     4.4334     0.0415 H       
  37 H37            1.5315     4.2673     0.0104 H       
  38 H38            2.9130    -2.4664    -0.0381 H       
  39 H39            4.2396    -4.4466     0.8296 H       
  40 H40            4.2230    -4.4376    -0.9503 H       
  41 H41            6.3895    -4.7833     2.0571 H       
  42 H42            7.9046    -5.0141     1.1517 H       
  43 H43            7.7497    -2.7100     2.0548 H       
  44 H44            8.1236    -1.5087    -0.0819 H       
  45 H45            8.9172    -3.1019    -0.0974 H       
  46 H46            7.7097    -2.6884    -2.2234 H       
  47 H47            5.2356    -2.5254    -2.1994 H       
  48 H48            5.9736    -1.1721    -1.3095 H       
  49 H49            7.8812    -5.0015    -1.3466 H       
  50 H50            6.3496    -4.7617    -2.2211 H       
  51 H51            5.9970    -1.1847     1.1889 H       
  52 H52            5.2756    -2.5470     2.0788 H       
  53 H53            5.0142    -6.6846    -0.0790 H       
  54 H54            8.8373    -9.1286    -0.1278 H       
  55 H55            6.1505   -12.4438    -0.1177 H       
  56 H56            4.2323   -10.9048    -0.0920 H       
  57 H57            4.5996    -8.4732    -0.0741 H       
@<TRIPOS>BOND
   1    1    2 1
   2    1    6 1
   3    1    7 2
   4    2    3 2
   5    2   33 1
   6    3    4 1
   7    3   34 1
   8    4    5 2
   9    4   10 1
  10    5    6 1
  11    5   35 1
  12    6    9 1
  13    7    8 1
  14    8    9 2
  15    8   36 1
  16    9   37 1
  17   10   11 2
  18   10   12 am
  19   12   13 1
  20   12   38 1
  21   13   14 1
  22   13   20 1
  23   13   22 1
  24   14   15 1
  25   14   39 1
  26   14   40 1
  27   15   16 1
  28   15   21 1
  29   15   23 1
  30   16   17 1
  31   16   41 1
  32   16   42 1
  33   17   18 1
  34   17   22 1
  35   17   43 1
  36   18   19 1
  37   18   44 1
  38   18   45 1
  39   19   20 1
  40   19   21 1
  41   19   46 1
  42   20   47 1
  43   20   48 1
  44   21   49 1
  45   21   50 1
  46   22   51 1
  47   22   52 1
  48   23   24 am
  49   23   53 1
  50   24   25 1
  51   24   31 2
  52   25   26 ar
  53   25   30 ar
  54   26   27 ar
  55   26   54 1
  56   27   28 ar
  57   27   32 1
  58   28   29 ar
  59   28   55 1
  60   29   30 ar
  61   29   56 1
  62   30   57 1

#	End of record

