#	Name: ASD04230068
#	Creating user name:	WinNT
#	Creation time:	15. 06. 2019 20:48

#	Modifying user name:	WinNT
#	Modification time:	15. 06. 2019 20:48

#	Program:	/corina/corina34_cracker 3.40 0067  02.08.2006

@<TRIPOS>MOLECULE
ASD04230068
  53   57    0    0    0
SMALL
NO_CHARGES


@<TRIPOS>ATOM
   1 C1             1.5398     4.8126     1.4774 C.ar    
   2 C2             2.5432     5.5114     2.1332 C.ar    
   3 C3             3.7926     4.9761     2.2621 C.ar    
   4 C4             4.0723     3.7136     1.7192 C.ar    
   5 C5             3.0503     2.9870     1.0818 C.ar    
   6 C6             1.7844     3.5551     0.9545 C.ar    
   7 C7             5.3766     3.1620     1.8124 C.2     
   8 C8             5.6479     2.0083     1.0890 C.2     
   9 C9             4.5615     1.4648     0.2534 C.2     
  10 O10            3.2882     1.7376     0.6160 O.3     
  11 C11            6.9659     1.3551     1.1532 C.2     
  12 N12            7.1988     0.2360     0.4392 N.am    
  13 O13            7.8444     1.8254     1.8506 O.2     
  14 C14            8.4829    -0.3174     0.4055 C.ar    
  15 C15            8.6441    -1.6962     0.3455 C.ar    
  16 C16            9.9115    -2.2467     0.3122 C.ar    
  17 C17           11.0241    -1.4301     0.3382 C.ar    
  18 C18           10.8719    -0.0456     0.3987 C.ar    
  19 C19            9.5958     0.5102     0.4262 C.ar    
  20 C20           12.0668     0.8334     0.4277 C.ar    
  21 O21            4.8034     0.7924    -0.7314 O.2     
  22 O22            0.7926     2.8759     0.3189 O.3     
  23 C23           13.3441     0.2767     0.3944 C.ar    
  24 C24           14.4529     1.0961     0.4215 C.ar    
  25 C25           14.2977     2.4747     0.4824 C.ar    
  26 C26           13.0264     3.0321     0.5161 C.ar    
  27 C27           11.9140     2.2178     0.4825 C.ar    
  28 O28           15.3918     3.2795     0.5094 O.3     
  29 C29           15.6238     4.0032     1.6359 C.ar    
  30 C30           16.6624     4.9227     1.6697 C.ar    
  31 C31           16.8961     5.6570     2.8162 C.ar    
  32 C32           16.0963     5.4761     3.9296 C.ar    
  33 C33           15.0609     4.5601     3.8986 C.ar    
  34 C34           14.8188     3.8280     2.7525 C.ar    
  35 H35            0.5583     5.2521     1.3782 H       
  36 H36            2.3341     6.4876     2.5450 H       
  37 H37            4.5648     5.5245     2.7812 H       
  38 H38            6.1346     3.6254     2.4265 H       
  39 H39            6.4760    -0.1857    -0.0514 H       
  40 H40            7.7768    -2.3395     0.3254 H       
  41 H41           10.0316    -3.3190     0.2660 H       
  42 H42           12.0128    -1.8639     0.3119 H       
  43 H43            9.4727     1.5821     0.4731 H       
  44 H44            0.2645     2.3138     0.9023 H       
  45 H45           13.4654    -0.7955     0.3478 H       
  46 H46           15.4429     0.6653     0.3958 H       
  47 H47           12.9086     4.1046     0.5638 H       
  48 H48           10.9254     2.6518     0.5088 H       
  49 H49           17.2878     5.0639     0.8006 H       
  50 H50           17.7043     6.3728     2.8431 H       
  51 H51           16.2809     6.0509     4.8250 H       
  52 H52           14.4380     4.4205     4.7697 H       
  53 H53           14.0100     3.1127     2.7289 H       
@<TRIPOS>BOND
   1    1    2 ar
   2    1    6 ar
   3    1   35 1
   4    2    3 ar
   5    2   36 1
   6    3    4 ar
   7    3   37 1
   8    4    5 ar
   9    4    7 1
  10    5    6 ar
  11    5   10 1
  12    6   22 1
  13    7    8 2
  14    7   38 1
  15    8    9 1
  16    8   11 1
  17    9   10 1
  18    9   21 2
  19   11   12 am
  20   11   13 2
  21   12   14 1
  22   12   39 1
  23   14   15 ar
  24   14   19 ar
  25   15   16 ar
  26   15   40 1
  27   16   17 ar
  28   16   41 1
  29   17   18 ar
  30   17   42 1
  31   18   19 ar
  32   18   20 1
  33   19   43 1
  34   20   23 ar
  35   20   27 ar
  36   22   44 1
  37   23   24 ar
  38   23   45 1
  39   24   25 ar
  40   24   46 1
  41   25   26 ar
  42   25   28 1
  43   26   27 ar
  44   26   47 1
  45   27   48 1
  46   28   29 1
  47   29   30 ar
  48   29   34 ar
  49   30   31 ar
  50   30   49 1
  51   31   32 ar
  52   31   50 1
  53   32   33 ar
  54   32   51 1
  55   33   34 ar
  56   33   52 1
  57   34   53 1

#	End of record

