#	Name: ASD00960300
#	Creating user name:	WinNT
#	Creation time:	15. 06. 2019 18:53

#	Modifying user name:	WinNT
#	Modification time:	15. 06. 2019 18:53

#	Program:	/corina/corina34_cracker 3.40 0067  02.08.2006

@<TRIPOS>MOLECULE
ASD00960300
  37   39    0    0    0
SMALL
NO_CHARGES


@<TRIPOS>ATOM
   1 C1            -0.0179     1.4694     0.0101 C.2     
   2 N2            -0.7231     3.5771     0.0189 N.pl3   
   3 C3             0.6453     3.5894     0.0189 C.2     
   4 C4             1.1042     2.3294     0.0040 C.2     
   5 N5            -1.4654     4.7686     0.0093 N.2     
   6 C6            -0.8393     5.8852    -0.2211 C.2     
   7 N7             0.5068     5.9228    -0.4982 N.pl3   
   8 C8             1.4110     4.8941     0.0460 C.3     
   9 N9             1.7837     5.2311     1.4264 N.3     
  10 C10           -1.1532     2.2915     0.0192 C.2     
  11 C11            0.0021    -0.0041     0.0020 C.2     
  12 O12            1.1782    -0.6620    -0.0122 O.3     
  13 O13           -1.0419    -0.6259     0.0082 O.2     
  14 C14           -2.5499     1.8432     0.0276 C.2     
  15 O15           -2.8069     0.6548     0.0275 O.2     
  16 O16           -3.5490     2.7492     0.0355 O.3     
  17 C17           -4.9063     2.2337     0.0436 C.3     
  18 C18           -5.8804     3.3836     0.0517 C.ar    
  19 C19           -6.3349     3.9128    -1.1418 C.ar    
  20 C20           -7.2283     4.9676    -1.1344 C.ar    
  21 C21           -7.6676     5.4929     0.0665 C.ar    
  22 C22           -7.2138     4.9631     1.2599 C.ar    
  23 C23           -6.3237     3.9055     1.2525 C.ar    
  24 H24            2.1409     2.0271    -0.0097 H       
  25 H25           -1.3940     6.8114    -0.1942 H       
  26 H26            0.8639     6.6315    -1.0561 H       
  27 H27            2.3038     4.8156    -0.5744 H       
  28 H28            2.2546     6.1226     1.4664 H       
  29 H29            0.9765     5.2210     2.0317 H       
  30 H30            1.1407    -1.6282    -0.0171 H       
  31 H31           -5.0693     1.6257    -0.8463 H       
  32 H32           -5.0578     1.6230     0.9336 H       
  33 H33           -5.9917     3.5024    -2.0800 H       
  34 H34           -7.5829     5.3815    -2.0667 H       
  35 H35           -8.3651     6.3174     0.0723 H       
  36 H36           -7.5567     5.3737     2.1981 H       
  37 H37           -5.9720     3.4891     2.1849 H       
@<TRIPOS>BOND
   1    1   11 1
   2    1    4 1
   3    1   10 2
   4    2    3 1
   5    2    5 1
   6    2   10 1
   7    3    4 2
   8    3    8 1
   9    4   24 1
  10    5    6 2
  11    6    7 1
  12    6   25 1
  13    7    8 1
  14    7   26 1
  15    8    9 1
  16    8   27 1
  17    9   28 1
  18    9   29 1
  19   10   14 1
  20   11   12 1
  21   11   13 2
  22   12   30 1
  23   14   15 2
  24   14   16 1
  25   16   17 1
  26   17   18 1
  27   17   31 1
  28   17   32 1
  29   18   19 ar
  30   18   23 ar
  31   19   20 ar
  32   19   33 1
  33   20   21 ar
  34   20   34 1
  35   21   22 ar
  36   21   35 1
  37   22   23 ar
  38   22   36 1
  39   23   37 1

#	End of record

