#	Name: ASD02500533
#	Creating user name:	WinNT
#	Creation time:	15. 06. 2019 20:23

#	Modifying user name:	WinNT
#	Modification time:	15. 06. 2019 20:23

#	Program:	/corina/corina34_cracker 3.40 0067  02.08.2006

@<TRIPOS>MOLECULE
ASD02500533
  65   69    0    0    0
SMALL
NO_CHARGES


@<TRIPOS>ATOM
   1 N1            -0.0944     4.4893    -1.0659 N.ar    
   2 C2             1.1141     4.3698    -0.5726 C.ar    
   3 C3             2.1836     3.9313    -1.3506 C.ar    
   4 C4             1.9858     3.6127    -2.6638 C.ar    
   5 C5             0.6864     3.7418    -3.1901 C.ar    
   6 C6             0.4066     3.4334    -4.5308 C.ar    
   7 C7            -0.8634     3.5717    -5.0021 C.ar    
   8 C8            -1.8898     4.0160    -4.1715 C.ar    
   9 C9            -1.6539     4.3238    -2.8668 C.ar    
  10 C10           -0.3560     4.1939    -2.3432 C.ar    
  11 S11           -2.9704     4.8841    -1.8384 S.o2    
  12 O12           -2.4928     6.0446    -1.1717 O.2     
  13 O13           -4.1404     4.8773    -2.6449 O.2     
  14 N14           -3.2020     3.7349    -0.6688 N.am    
  15 C15           -3.5849     2.4468    -1.0259 C.ar    
  16 C16           -2.9350     1.3492    -0.4683 C.ar    
  17 C17           -3.3117     0.0731    -0.8197 C.ar    
  18 C18           -4.3482    -0.1203    -1.7376 C.ar    
  19 C19           -4.9989     0.9840    -2.2958 C.ar    
  20 C20           -4.6213     2.2574    -1.9360 C.ar    
  21 C21           -4.7542    -1.4869    -2.1169 C.2     
  22 O22           -5.9322    -1.7551    -2.2542 O.2     
  23 N23           -3.8194    -2.4381    -2.3112 N.am    
  24 C24           -4.2258    -3.7063    -2.7641 C.3     
  25 C25           -3.7973    -4.8049    -1.7583 C.3     
  26 N26           -2.3622    -4.9795    -1.8512 N.3     
  27 C27           -1.5680    -4.1950    -0.8831 C.3     
  28 C28           -2.0502    -2.7543    -0.7208 C.3     
  29 C29           -2.4036    -2.1102    -2.0468 C.3     
  30 C30           -2.0004    -6.4023    -1.7986 C.3     
  31 C31           -2.4445    -7.0808    -3.0688 C.ar    
  32 C32           -1.6738    -6.9807    -4.2126 C.ar    
  33 C33           -2.0811    -7.6034    -5.3789 C.ar    
  34 C34           -3.2598    -8.3280    -5.4032 C.ar    
  35 C35           -4.0330    -8.4305    -4.2617 C.ar    
  36 C36           -3.6236    -7.8110    -3.0898 C.ar    
  37 O37           -4.3794    -7.9152    -1.9652 O.3     
  38 Cl38          -3.7682    -9.1084    -6.8682 Cl      
  39 Cl39          -0.1947    -6.0724    -4.1852 Cl      
  40 H40            1.2855     4.6182     0.4644 H       
  41 H41            3.1683     3.8438    -0.9156 H       
  42 H42            2.8034     3.2716    -3.2815 H       
  43 H43            1.1941     3.0887    -5.1846 H       
  44 H44           -1.0778     3.3342    -6.0337 H       
  45 H45           -2.8886     4.1182    -4.5692 H       
  46 H46           -3.0704     3.9604     0.2654 H       
  47 H47           -2.1341     1.4993     0.2405 H       
  48 H48           -2.8069    -0.7780    -0.3871 H       
  49 H49           -5.7997     0.8377    -3.0054 H       
  50 H50           -5.1268     3.1109    -2.3632 H       
  51 H51           -5.3105    -3.7195    -2.8707 H       
  52 H52           -3.7672    -3.9064    -3.7324 H       
  53 H53           -4.0642    -4.4995    -0.7466 H       
  54 H54           -4.2968    -5.7419    -2.0047 H       
  55 H55           -1.6138    -4.6894     0.0872 H       
  56 H56           -0.5298    -4.1798    -1.2149 H       
  57 H57           -2.9304    -2.7472    -0.0779 H       
  58 H58           -1.2629    -2.1703    -0.2442 H       
  59 H59           -1.7735    -2.5150    -2.8388 H       
  60 H60           -2.2770    -1.0294    -1.9848 H       
  61 H61           -0.9198    -6.4987    -1.6938 H       
  62 H62           -2.4915    -6.8707    -0.9456 H       
  63 H63           -1.4785    -7.5237    -6.2716 H       
  64 H64           -4.9532    -8.9955    -4.2813 H       
  65 H65           -5.1011    -7.2735    -1.9155 H       
@<TRIPOS>BOND
   1    1    2 ar
   2    1   10 ar
   3    2    3 ar
   4    2   40 1
   5    3    4 ar
   6    3   41 1
   7    4    5 ar
   8    4   42 1
   9    5    6 ar
  10    5   10 ar
  11    6    7 ar
  12    6   43 1
  13    7    8 ar
  14    7   44 1
  15    8    9 ar
  16    8   45 1
  17    9   10 ar
  18    9   11 1
  19   11   12 2
  20   11   13 2
  21   11   14 am
  22   14   15 1
  23   14   46 1
  24   15   16 ar
  25   15   20 ar
  26   16   17 ar
  27   16   47 1
  28   17   18 ar
  29   17   48 1
  30   18   19 ar
  31   18   21 1
  32   19   20 ar
  33   19   49 1
  34   20   50 1
  35   21   22 2
  36   21   23 am
  37   23   24 1
  38   23   29 1
  39   24   25 1
  40   24   51 1
  41   24   52 1
  42   25   26 1
  43   25   53 1
  44   25   54 1
  45   26   27 1
  46   26   30 1
  47   27   28 1
  48   27   55 1
  49   27   56 1
  50   28   29 1
  51   28   57 1
  52   28   58 1
  53   29   59 1
  54   29   60 1
  55   30   31 1
  56   30   61 1
  57   30   62 1
  58   31   32 ar
  59   31   36 ar
  60   32   33 ar
  61   32   39 1
  62   33   34 ar
  63   33   63 1
  64   34   35 ar
  65   34   38 1
  66   35   36 ar
  67   35   64 1
  68   36   37 1
  69   37   65 1

#	End of record

