#	Name: ASD01901000
#	Creating user name:	WinNT
#	Creation time:	15. 06. 2019 19:53

#	Modifying user name:	WinNT
#	Modification time:	15. 06. 2019 19:53

#	Program:	/corina/corina34_cracker 3.40 0067  02.08.2006

@<TRIPOS>MOLECULE
ASD01901000
  61   65    0    0    0
SMALL
NO_CHARGES


@<TRIPOS>ATOM
   1 C1             0.3276     1.0220     0.4757 C.ar    
   2 C2             0.2481    -0.3511     0.3782 C.ar    
   3 C3             1.3453    -1.0914    -0.0376 C.ar    
   4 C4             2.5369    -0.4648    -0.3532 C.ar    
   5 C5             2.6343     0.9124    -0.2548 C.ar    
   6 C6             1.5194     1.6669     0.1523 C.ar    
   7 N7             3.8166     1.5852    -0.5425 N.pl3   
   8 C8             3.7436     2.9666    -1.0317 C.3     
   9 N9             2.7558     3.7253    -0.2635 N.am    
  10 C10            1.6529     3.1315     0.2344 C.2     
  11 C11            2.9605     5.0926    -0.0408 C.ar    
  12 C12            2.2592     6.0306    -0.7869 C.ar    
  13 C13            2.4616     7.3787    -0.5668 C.ar    
  14 C14            3.3655     7.7961     0.3992 C.ar    
  15 C15            4.0664     6.8597     1.1450 C.ar    
  16 C16            3.8605     5.5112     0.9303 C.ar    
  17 O17            0.7751     3.7994     0.7469 O.2     
  18 O18            3.5649     9.1237     0.6148 O.3     
  19 C19            5.1177     3.6272    -0.8869 C.3     
  20 C20            3.3446     2.9594    -2.5101 C.3     
  21 C21            3.3356     4.3963    -3.0370 C.3     
  22 N22            4.6698     4.9873    -2.8741 N.3     
  23 C23            5.0569     5.0456    -1.4588 C.3     
  24 C24            4.7353     6.3180    -3.4929 C.3     
  25 C25            6.0366     6.9812    -3.1217 C.ar    
  26 C26            4.4783     9.4822     1.6537 C.3     
  27 C27            6.0432     8.2928    -2.6846 C.ar    
  28 C28            7.2375     8.9023    -2.3432 C.ar    
  29 C29            8.4272     8.1960    -2.4399 C.ar    
  30 C30            8.4173     6.8835    -2.8776 C.ar    
  31 C31            7.2216     6.2757    -3.2131 C.ar    
  32 F32            7.2448    10.1841    -1.9164 F       
  33 Br33           1.2104    -2.9727    -0.1733 Br      
  34 F34            9.5947     8.7892    -2.1074 F       
  35 F35            5.7416     8.9542     1.3667 F       
  36 F36            4.5638    10.8760     1.7389 F       
  37 F37            4.0236     8.9676     2.8725 F       
  38 C38            4.6501     6.1777    -5.0141 C.3     
  39 F39            3.3918     5.6780    -5.3666 F       
  40 F40            4.8380     7.4299    -5.6091 F       
  41 F41            5.6426     5.2970    -5.4575 F       
  42 H42           -0.5302     1.5945     0.7965 H       
  43 H43           -0.6746    -0.8539     0.6276 H       
  44 H44            3.3877    -1.0473    -0.6746 H       
  45 H45            4.6746     1.1492    -0.4216 H       
  46 H46            1.5560     5.7058    -1.5395 H       
  47 H47            1.9163     8.1083    -1.1471 H       
  48 H48            4.7702     7.1853     1.8967 H       
  49 H49            4.4030     4.7823     1.5141 H       
  50 H50            5.3914     3.6711     0.1673 H       
  51 H51            5.8607     3.0459    -1.4330 H       
  52 H52            4.0627     2.3679    -3.0781 H       
  53 H53            2.3500     2.5263    -2.6167 H       
  54 H54            3.0658     4.3941    -4.0931 H       
  55 H55            2.6074     4.9836    -2.4776 H       
  56 H56            4.3218     5.6294    -0.9049 H       
  57 H57            6.0362     5.5157    -1.3691 H       
  58 H58            3.9033     6.9256    -3.1369 H       
  59 H59            5.1161     8.8418    -2.6101 H       
  60 H60            9.3431     6.3326    -2.9537 H       
  61 H61            7.2140     5.2499    -3.5508 H       
@<TRIPOS>BOND
   1    1    2 ar
   2    1    6 ar
   3    1   42 1
   4    2    3 ar
   5    2   43 1
   6    3    4 ar
   7    3   33 1
   8    4    5 ar
   9    4   44 1
  10    5    7 1
  11    5    6 ar
  12    6   10 1
  13    7    8 1
  14    7   45 1
  15    8    9 1
  16    8   20 1
  17    8   19 1
  18    9   10 am
  19    9   11 1
  20   10   17 2
  21   11   12 ar
  22   11   16 ar
  23   12   13 ar
  24   12   46 1
  25   13   14 ar
  26   13   47 1
  27   14   15 ar
  28   14   18 1
  29   15   16 ar
  30   15   48 1
  31   16   49 1
  32   18   26 1
  33   19   23 1
  34   19   50 1
  35   19   51 1
  36   20   21 1
  37   20   52 1
  38   20   53 1
  39   21   22 1
  40   21   54 1
  41   21   55 1
  42   22   23 1
  43   22   24 1
  44   23   56 1
  45   23   57 1
  46   24   25 1
  47   24   38 1
  48   24   58 1
  49   25   27 ar
  50   25   31 ar
  51   26   35 1
  52   26   36 1
  53   26   37 1
  54   27   28 ar
  55   27   59 1
  56   28   29 ar
  57   28   32 1
  58   29   30 ar
  59   29   34 1
  60   30   31 ar
  61   30   60 1
  62   31   61 1
  63   38   39 1
  64   38   40 1
  65   38   41 1

#	End of record

