#	Name: ASD03090651
#	Creating user name:	WinNT
#	Creation time:	15. 06. 2019 20:29

#	Modifying user name:	WinNT
#	Modification time:	15. 06. 2019 20:29

#	Program:	/corina/corina34_cracker 3.40 0067  02.08.2006

@<TRIPOS>MOLECULE
ASD03090651
  40   42    0    0    0
SMALL
NO_CHARGES


@<TRIPOS>ATOM
   1 N1            -0.0162     1.3436     0.0094 N.am    
   2 C2            -0.1434     0.0021     0.0365 C.2     
   3 O3             0.8430    -0.7039    -0.0461 O.2     
   4 N4            -1.3641    -0.5568     0.1550 N.am    
   5 S5            -0.2369    -3.1099     0.0812 S.3     
   6 N6            -1.2813    -4.4456     0.1931 N.2     
   7 C7            -2.4871    -3.9463     0.2979 C.2     
   8 N8            -2.6048    -2.6316     0.2930 N.2     
   9 C9            -1.4950    -1.9377     0.1828 C.2     
  10 C10           -3.6765    -4.8251     0.4172 C.ar    
  11 C11           -3.5250    -6.2104     0.4199 C.ar    
  12 C12           -4.6349    -7.0231     0.5315 C.ar    
  13 C13           -5.8958    -6.4650     0.6407 C.ar    
  14 C14           -6.0521    -5.0906     0.6386 C.ar    
  15 C15           -4.9487    -4.2683     0.5327 C.ar    
  16 C16            1.2581     1.9267     0.0080 C.ar    
  17 C17            1.4789     3.1119    -0.6809 C.ar    
  18 C18            2.7345     3.6861    -0.6815 C.ar    
  19 C19            3.7756     3.0790     0.0057 C.ar    
  20 C20            3.5559     1.8949     0.6937 C.ar    
  21 C21            2.2989     1.3227     0.7002 C.ar    
  22 C22            0.3483     3.7710    -1.4283 C.3     
  23 O23            5.0121     3.6448     0.0043 O.3     
  24 C24            6.0371     2.9657     0.7326 C.3     
  25 H25           -0.8067     1.9053    -0.0131 H       
  26 H26           -2.1511     0.0064     0.2208 H       
  27 H27           -2.5410    -6.6472     0.3343 H       
  28 H28           -4.5187    -8.0968     0.5334 H       
  29 H29           -6.7616    -7.1048     0.7275 H       
  30 H30           -7.0389    -4.6602     0.7241 H       
  31 H31           -5.0714    -3.1953     0.5357 H       
  32 H32            2.9063     4.6080    -1.2174 H       
  33 H33            4.3669     1.4226     1.2281 H       
  34 H34            2.1267     0.4032     1.2399 H       
  35 H35           -0.1690     4.4652    -0.7661 H       
  36 H36            0.7471     4.3147    -2.2847 H       
  37 H37           -0.3508     3.0099    -1.7746 H       
  38 H38            5.7497     2.8923     1.7814 H       
  39 H39            6.1724     1.9652     0.3220 H       
  40 H40            6.9709     3.5218     0.6497 H       
@<TRIPOS>BOND
   1    1    2 am
   2    1   16 1
   3    1   25 1
   4    2    3 2
   5    2    4 am
   6    4    9 1
   7    4   26 1
   8    5    6 1
   9    5    9 1
  10    6    7 2
  11    7    8 1
  12    7   10 1
  13    8    9 2
  14   10   11 ar
  15   10   15 ar
  16   11   12 ar
  17   11   27 1
  18   12   13 ar
  19   12   28 1
  20   13   14 ar
  21   13   29 1
  22   14   15 ar
  23   14   30 1
  24   15   31 1
  25   16   17 ar
  26   16   21 ar
  27   17   18 ar
  28   17   22 1
  29   18   19 ar
  30   18   32 1
  31   19   20 ar
  32   19   23 1
  33   20   21 ar
  34   20   33 1
  35   21   34 1
  36   22   35 1
  37   22   36 1
  38   22   37 1
  39   23   24 1
  40   24   38 1
  41   24   39 1
  42   24   40 1

#	End of record

