#	Name: ASD01838001
#	Creating user name:	WinNT
#	Creation time:	15. 06. 2019 19:37

#	Modifying user name:	WinNT
#	Modification time:	15. 06. 2019 19:37

#	Program:	/corina/corina34_cracker 3.40 0067  02.08.2006

@<TRIPOS>MOLECULE
ASD01838001
  48   52    0    0    0
SMALL
NO_CHARGES


@<TRIPOS>ATOM
   1 C1            -0.0089     1.6865     0.0379 C.3     
   2 C2             0.2313     0.1605     0.1001 C.3     
   3 O3            -0.7238    -0.6940    -0.5320 O.3     
   4 C4             0.3549    -0.2806    -1.3732 C.3     
   5 C5             0.1780     1.0190    -2.1918 C.3     
   6 C6             1.5640     1.6627    -2.3573 C.3     
   7 C7             2.2636     1.6899    -0.9954 C.3     
   8 C8             1.3636     2.3787     0.0345 C.3     
   9 N9            -0.6167     1.9064    -1.3015 N.4     
  10 C10           -2.0301     1.5062    -1.3001 C.3     
  11 C11           -0.4745     3.3103    -1.7099 C.3     
  12 O12            2.5368     0.3302    -0.5655 O.3     
  13 C13            3.6160     0.1415     0.2101 C.2     
  14 O14            4.3094     1.0814     0.5196 O.2     
  15 C15            3.9628    -1.2426     0.6949 C.3     
  16 C16            5.4393    -1.3173     0.9870 C.2     
  17 C17            6.3801    -1.6683     0.1089 C.2     
  18 C18            7.6721    -1.6644     0.6055 C.2     
  19 C19            7.7807    -1.3103     1.8869 C.2     
  20 S20            6.1865    -0.9477     2.5357 S.3     
  21 C21            3.1864    -1.5441     1.9509 C.2     
  22 C22            1.9798    -2.1112     1.9915 C.2     
  23 C23            1.4621    -2.2905     3.2627 C.2     
  24 C24            2.2483    -1.8689     4.2544 C.2     
  25 S25            3.7360    -1.2089     3.5877 S.3     
  26 O26            3.6277    -2.1983    -0.3132 O.3     
  27 H27           -0.6436     2.0374     0.8515 H       
  28 H28            0.8614    -0.2257     0.9014 H       
  29 H29            1.0932    -1.0085    -1.7095 H       
  30 H30           -0.3083     0.8392    -3.1506 H       
  31 H31            2.1566     1.0776    -3.0606 H       
  32 H32            1.4515     2.6807    -2.7304 H       
  33 H33            3.2020     2.2379    -1.0808 H       
  34 H34            1.2422     3.4288    -0.2311 H       
  35 H35            1.8144     2.3002     1.0238 H       
  36 H36           -2.5464     1.9986    -0.4760 H       
  37 H37           -2.4912     1.7978    -2.2438 H       
  38 H38           -2.1015     0.4252    -1.1796 H       
  39 H39            0.5803     3.5850    -1.7053 H       
  40 H40           -0.8792     3.4395    -2.7137 H       
  41 H41           -1.0190     3.9482    -1.0137 H       
  42 H42            6.1510    -1.9355    -0.9122 H       
  43 H43            8.5275    -1.9284     0.0013 H       
  44 H44            8.7062    -1.2516     2.4404 H       
  45 H45            1.4470    -2.4078     1.1002 H       
  46 H46            0.4947    -2.7375     3.4383 H       
  47 H47            2.0094    -1.9272     5.3060 H       
  48 H48            4.0914    -2.0650    -1.1512 H       
@<TRIPOS>BOND
   1    1    2 1
   2    1    8 1
   3    1    9 1
   4    1   27 1
   5    2    3 1
   6    2    4 1
   7    2   28 1
   8    3    4 1
   9    4    5 1
  10    4   29 1
  11    5    6 1
  12    5    9 1
  13    5   30 1
  14    6    7 1
  15    6   31 1
  16    6   32 1
  17    7    8 1
  18    7   12 1
  19    7   33 1
  20    8   34 1
  21    8   35 1
  22    9   10 1
  23    9   11 1
  24   10   36 1
  25   10   37 1
  26   10   38 1
  27   11   39 1
  28   11   40 1
  29   11   41 1
  30   12   13 1
  31   13   14 2
  32   13   15 1
  33   15   16 1
  34   15   21 1
  35   15   26 1
  36   16   17 2
  37   16   20 1
  38   17   18 1
  39   17   42 1
  40   18   19 2
  41   18   43 1
  42   19   20 1
  43   19   44 1
  44   21   22 2
  45   21   25 1
  46   22   23 1
  47   22   45 1
  48   23   24 2
  49   23   46 1
  50   24   25 1
  51   24   47 1
  52   26   48 1

#	End of record

