#	Name: ASD01870484
#	Creating user name:	WinNT
#	Creation time:	15. 06. 2019 19:39

#	Modifying user name:	WinNT
#	Modification time:	15. 06. 2019 19:39

#	Program:	/corina/corina34_cracker 3.40 0067  02.08.2006

@<TRIPOS>MOLECULE
ASD01870484
  39   42    0    0    0
SMALL
NO_CHARGES


@<TRIPOS>ATOM
   1 C1            -0.0306     1.3986    -0.2316 C.ar    
   2 C2            -0.0277     0.0164    -0.1039 C.ar    
   3 C3             1.1508    -0.6615     0.1413 C.ar    
   4 C4             2.3473     0.0287     0.2627 C.ar    
   5 C5             2.3610     1.4082     0.1374 C.ar    
   6 C6             1.1590     2.1018    -0.1124 C.ar    
   7 C7             3.4164     2.4407     0.2062 C.2     
   8 N8             2.8509     3.6451     0.0078 N.am    
   9 C9             1.5248     3.5310    -0.1869 C.2     
  10 O10            0.7567     4.4495    -0.3907 O.2     
  11 O11            4.5964     2.2362     0.4086 O.2     
  12 C12            3.5522     4.8609     0.0051 C.ar    
  13 C13            4.0827     5.3535    -1.1794 C.ar    
  14 C14            4.7729     6.5490    -1.1824 C.ar    
  15 C15            4.9368     7.2597    -0.0002 C.ar    
  16 C16            4.4060     6.7678     1.1849 C.ar    
  17 C17            3.7104     5.5741     1.1868 C.ar    
  18 Cl18           3.0403     4.9620     2.6666 Cl      
  19 N19            5.6376     8.4716    -0.0034 N.am    
  20 C20            6.4098     8.8063     1.0492 C.2     
  21 C21            7.2276    10.0318     1.0032 C.2     
  22 O22            6.4319     8.0972     2.0371 O.2     
  23 C23            8.0499    10.4925     1.9851 C.2     
  24 O24            8.5997    11.6309     1.5329 O.3     
  25 C25            8.1262    11.8648     0.3009 C.2     
  26 N26            7.3071    10.9122    -0.0312 N.2     
  27 C27            8.2964     9.8477     3.3247 C.3     
  28 Cl28          -1.5148     2.2424    -0.5461 Cl      
  29 H29           -0.9531    -0.5327    -0.1964 H       
  30 H30            1.1401    -1.7370     0.2393 H       
  31 H31            3.2651    -0.5072     0.4547 H       
  32 H32            3.9558     4.8011    -2.0987 H       
  33 H33            5.1858     6.9317    -2.1040 H       
  34 H34            4.5337     7.3200     2.1042 H       
  35 H35            5.5674     9.0704    -0.7633 H       
  36 H36            8.3874    12.7093    -0.3195 H       
  37 H37            9.1353     9.1562     3.2462 H       
  38 H38            8.5273    10.6171     4.0613 H       
  39 H39            7.4047     9.3032     3.6353 H       
@<TRIPOS>BOND
   1    1    2 ar
   2    1    6 ar
   3    1   28 1
   4    2    3 ar
   5    2   29 1
   6    3    4 ar
   7    3   30 1
   8    4    5 ar
   9    4   31 1
  10    5    7 1
  11    5    6 ar
  12    6    9 1
  13    7    8 am
  14    7   11 2
  15    8    9 am
  16    8   12 1
  17    9   10 2
  18   12   13 ar
  19   12   17 ar
  20   13   14 ar
  21   13   32 1
  22   14   15 ar
  23   14   33 1
  24   15   16 ar
  25   15   19 1
  26   16   17 ar
  27   16   34 1
  28   17   18 1
  29   19   20 am
  30   19   35 1
  31   20   21 1
  32   20   22 2
  33   21   23 2
  34   21   26 1
  35   23   24 1
  36   23   27 1
  37   24   25 1
  38   25   26 2
  39   25   36 1
  40   27   37 1
  41   27   38 1
  42   27   39 1

#	End of record

