#	Name: ASD03331330
#	Creating user name:	WinNT
#	Creation time:	15. 06. 2019 20:39

#	Modifying user name:	WinNT
#	Modification time:	15. 06. 2019 20:39

#	Program:	/corina/corina34_cracker 3.40 0067  02.08.2006

@<TRIPOS>MOLECULE
ASD03331330
  57   59    0    0    0
SMALL
NO_CHARGES


@<TRIPOS>ATOM
   1 C1            -0.2882     1.9822     0.2186 C.3     
   2 C2            -0.1054     0.4855     0.2394 C.2     
   3 C3             1.0662    -0.1278    -0.0551 C.2     
   4 C4             2.3176     0.6215    -0.4411 C.3     
   5 C5             1.9115     2.0540    -0.8152 C.3     
   6 N6             1.0438     2.6106     0.2314 N.3     
   7 N7            -0.3765    -1.7203     0.4227 N.2     
   8 N8            -1.0139    -0.4750     0.5362 N.am    
   9 C9             0.8754    -1.5124     0.0673 C.2     
  10 C10           -2.3012    -0.2708     0.8794 C.2     
  11 O11           -2.7406     0.8601     0.9442 O.2     
  12 N12           -3.1010    -1.3211     1.1508 N.am    
  13 C13            0.9385     4.0705     0.1066 C.3     
  14 C14           -4.9935    -2.2659     2.3402 C.2     
  15 C15           -4.5002    -1.0992     1.5239 C.3     
  16 C16           -5.3504    -0.9662     0.2588 C.3     
  17 C17           -5.1525    -2.2022    -0.6210 C.3     
  18 O18           -4.5093    -3.3662     2.1797 O.2     
  19 N19           -5.9728    -2.0865     3.2487 N.am    
  20 C20           -6.5286    -3.2381     3.9636 C.3     
  21 C21           -6.8257    -0.8467     0.6460 C.3     
  22 C22           -4.9230     0.2834    -0.5138 C.3     
  23 C23            1.9022    -2.5585    -0.1632 C.ar    
  24 C24            1.9063    -3.7164     0.6123 C.ar    
  25 C25            2.8639    -4.6877     0.3936 C.ar    
  26 C26            3.8203    -4.5104    -0.5963 C.ar    
  27 C27            3.8182    -3.3608    -1.3681 C.ar    
  28 C28            2.8611    -2.3883    -1.1595 C.ar    
  29 F29            4.7561    -5.4617    -0.8072 F       
  30 F30            2.8698    -5.8110     1.1443 F       
  31 H31           -0.8237     2.2745    -0.6847 H       
  32 H32           -0.8510     2.2959     1.0978 H       
  33 H33            3.0098     0.6421     0.4007 H       
  34 H34            2.7893     0.1365    -1.2958 H       
  35 H35            2.8049     2.6708    -0.9121 H       
  36 H36            1.3742     2.0429    -1.7634 H       
  37 H37           -2.7502    -2.2240     1.0991 H       
  38 H38            0.3577     4.4654     0.9402 H       
  39 H39            1.9362     4.5091     0.1188 H       
  40 H40            0.4432     4.3201    -0.8317 H       
  41 H41           -4.5787    -0.1850     2.1122 H       
  42 H42           -5.4569    -3.0924    -0.0706 H       
  43 H43           -5.7582    -2.1074    -1.5222 H       
  44 H44           -4.1014    -2.2873    -0.8969 H       
  45 H45           -6.3095    -1.1950     3.4292 H       
  46 H46           -5.7367    -3.7344     4.5246 H       
  47 H47           -7.3036    -2.8994     4.6513 H       
  48 H48           -6.9592    -3.9374     3.2469 H       
  49 H49           -6.9754     0.0606     1.2314 H       
  50 H50           -7.4357    -0.8017    -0.2562 H       
  51 H51           -7.1171    -1.7137     1.2388 H       
  52 H52           -3.8720     0.1983    -0.7897 H       
  53 H53           -5.5287     0.3782    -1.4151 H       
  54 H54           -5.0640     1.1640     0.1129 H       
  55 H55            1.1624    -3.8539     1.3831 H       
  56 H56            4.5644    -3.2266    -2.1372 H       
  57 H57            2.8584    -1.4941    -1.7651 H       
@<TRIPOS>BOND
   1    1    2 1
   2    1    6 1
   3    1   31 1
   4    1   32 1
   5    2    3 2
   6    2    8 1
   7    3    4 1
   8    3    9 1
   9    4    5 1
  10    4   33 1
  11    4   34 1
  12    5    6 1
  13    5   35 1
  14    5   36 1
  15    6   13 1
  16    7    8 1
  17    7    9 2
  18    8   10 am
  19    9   23 1
  20   10   11 2
  21   10   12 am
  22   12   15 1
  23   12   37 1
  24   13   38 1
  25   13   39 1
  26   13   40 1
  27   14   18 2
  28   14   19 am
  29   14   15 1
  30   15   16 1
  31   15   41 1
  32   16   17 1
  33   16   21 1
  34   16   22 1
  35   17   42 1
  36   17   43 1
  37   17   44 1
  38   19   20 1
  39   19   45 1
  40   20   46 1
  41   20   47 1
  42   20   48 1
  43   21   49 1
  44   21   50 1
  45   21   51 1
  46   22   52 1
  47   22   53 1
  48   22   54 1
  49   23   24 ar
  50   23   28 ar
  51   24   25 ar
  52   24   55 1
  53   25   26 ar
  54   25   30 1
  55   26   27 ar
  56   26   29 1
  57   27   28 ar
  58   27   56 1
  59   28   57 1

#	End of record

