#	Name: ASD01914539
#	Creating user name:	WinNT
#	Creation time:	15. 06. 2019 20:03

#	Modifying user name:	WinNT
#	Modification time:	15. 06. 2019 20:03

#	Program:	/corina/corina34_cracker 3.40 0067  02.08.2006

@<TRIPOS>MOLECULE
ASD01914539
  71   76    0    0    0
SMALL
NO_CHARGES


@<TRIPOS>ATOM
   1 C1            -0.0168     1.3872     0.0097 C.ar    
   2 C2             0.0021    -0.0041     0.0020 C.ar    
   3 C3             1.2223    -0.6652    -0.0132 C.ar    
   4 C4             2.3825     0.0874    -0.0202 C.ar    
   5 C5             2.2931     1.4791    -0.0118 C.ar    
   6 N6             1.1168     2.0797     0.0026 N.ar    
   7 C7            -1.3137     2.1032     0.0197 C.2     
   8 O8            -2.3543     1.4755     0.0212 O.2     
   9 N9            -1.3395     3.4507     0.0271 N.am    
  10 C10           -2.6221     4.1587     0.0370 C.3     
  11 C11           -2.3713     5.6680     0.0440 C.3     
  12 C12           -3.7107     6.4074     0.0544 C.3     
  13 C13           -4.4999     6.0157     1.3052 C.3     
  14 C14           -4.7506     4.5064     1.2982 C.3     
  15 C15           -5.5516     4.1283     0.0506 C.3     
  16 C16           -4.7624     4.5200    -1.2002 C.3     
  17 C17           -3.4230     3.7806    -1.2106 C.3     
  18 C18           -4.5117     6.0293    -1.1932 C.3     
  19 C19           -3.4112     3.7670     1.2879 C.3     
  20 N20           -3.4707     7.8526     0.0611 N.am    
  21 C21           -4.5117     8.7086     0.0706 C.2     
  22 O22           -5.6493     8.2817     0.0737 O.2     
  23 C23           -4.2688    10.1703     0.0774 C.ar    
  24 C24           -5.3491    11.0499     0.0873 C.ar    
  25 C25           -5.1062    12.4143     0.0940 C.ar    
  26 C26           -3.7907    12.8517     0.0907 C.ar    
  27 C27           -2.7652    11.9200     0.0808 C.ar    
  28 N28           -3.0241    10.6305     0.0796 N.ar    
  29 C29           -1.3336    12.3907     0.0771 C.3     
  30 N30            3.4545     2.2425    -0.0188 N.3     
  31 C31            3.1377     3.6939    -0.0080 C.3     
  32 C32            4.4228     4.3686     0.5178 C.3     
  33 C33            5.1468     3.2745     1.3292 C.3     
  34 C34            4.2382     2.0307     1.2253 C.3     
  35 C35            2.8198     4.1812    -1.4230 C.3     
  36 O36            3.9865     4.0658    -2.2400 O.3     
  37 H37           -0.9220    -0.5630     0.0082 H       
  38 H38            1.2649    -1.7443    -0.0190 H       
  39 H39            3.3475    -0.3974    -0.0316 H       
  40 H40           -0.5090     3.9517     0.0259 H       
  41 H41           -1.8007     5.9374     0.9328 H       
  42 H42           -1.8091     5.9471    -0.8471 H       
  43 H43           -3.9293     6.2851     2.1940 H       
  44 H44           -5.4541     6.5425     1.3126 H       
  45 H45           -5.3129     4.2273     2.1893 H       
  46 H46           -5.7302     3.0530     0.0456 H       
  47 H47           -6.5058     4.6551     0.0580 H       
  48 H48           -5.3330     4.2506    -2.0890 H       
  49 H49           -2.8608     4.0596    -2.1017 H       
  50 H50           -3.6016     2.7053    -1.2156 H       
  51 H51           -5.4659     6.5561    -1.1858 H       
  52 H52           -3.9495     6.3084    -2.0843 H       
  53 H53           -3.5899     2.6917     1.2829 H       
  54 H54           -2.8406     4.0364     2.1766 H       
  55 H55           -2.5625     8.1934     0.0587 H       
  56 H56           -6.3615    10.6738     0.0893 H       
  57 H57           -5.9231    13.1207     0.1014 H       
  58 H58           -3.5675    13.9084     0.0954 H       
  59 H59           -0.9838    12.4982     1.1038 H       
  60 H60           -0.7128    11.6616    -0.4437 H       
  61 H61           -1.2686    13.3525    -0.4316 H       
  62 H62            2.3013     3.8954     0.6613 H       
  63 H63            5.0454     4.6974    -0.3142 H       
  64 H64            4.1715     5.2126     1.1603 H       
  65 H65            6.1248     3.0662     0.8953 H       
  66 H66            5.2510     3.5814     2.3699 H       
  67 H67            3.5741     1.9720     2.0876 H       
  68 H68            4.8404     1.1256     1.1458 H       
  69 H69            2.0191     3.5738    -1.8452 H       
  70 H70            2.5039     5.2238    -1.3859 H       
  71 H71            3.8580     4.3577    -3.1528 H       
@<TRIPOS>BOND
   1    1    2 ar
   2    1    6 ar
   3    1    7 1
   4    2    3 ar
   5    2   37 1
   6    3    4 ar
   7    3   38 1
   8    4    5 ar
   9    4   39 1
  10    5    6 ar
  11    5   30 1
  12    7    8 2
  13    7    9 am
  14    9   10 1
  15    9   40 1
  16   10   11 1
  17   10   17 1
  18   10   19 1
  19   11   12 1
  20   11   41 1
  21   11   42 1
  22   12   13 1
  23   12   18 1
  24   12   20 1
  25   13   14 1
  26   13   43 1
  27   13   44 1
  28   14   15 1
  29   14   19 1
  30   14   45 1
  31   15   16 1
  32   15   46 1
  33   15   47 1
  34   16   17 1
  35   16   18 1
  36   16   48 1
  37   17   49 1
  38   17   50 1
  39   18   51 1
  40   18   52 1
  41   19   53 1
  42   19   54 1
  43   20   21 am
  44   20   55 1
  45   21   22 2
  46   21   23 1
  47   23   24 ar
  48   23   28 ar
  49   24   25 ar
  50   24   56 1
  51   25   26 ar
  52   25   57 1
  53   26   27 ar
  54   26   58 1
  55   27   28 ar
  56   27   29 1
  57   29   59 1
  58   29   60 1
  59   29   61 1
  60   30   31 1
  61   30   34 1
  62   31   32 1
  63   31   35 1
  64   31   62 1
  65   32   33 1
  66   32   63 1
  67   32   64 1
  68   33   34 1
  69   33   65 1
  70   33   66 1
  71   34   67 1
  72   34   68 1
  73   35   36 1
  74   35   69 1
  75   35   70 1
  76   36   71 1

#	End of record

