#	Name: ASD01810726
#	Creating user name:	WinNT
#	Creation time:	15. 06. 2019 19:25

#	Modifying user name:	WinNT
#	Modification time:	15. 06. 2019 19:25

#	Program:	/corina/corina34_cracker 3.40 0067  02.08.2006

@<TRIPOS>MOLECULE
ASD01810726
  59   63    0    0    0
SMALL
NO_CHARGES


@<TRIPOS>ATOM
   1 C1            -0.0167     1.3796     0.0096 C.ar    
   2 C2             0.0021    -0.0041     0.0020 C.ar    
   3 C3             1.2289    -0.6644    -0.0132 C.ar    
   4 N4             2.3642     0.0224    -0.0204 N.ar    
   5 C5             2.3742     1.3402    -0.0134 C.ar    
   6 C6             1.1936     2.0588     0.0017 C.ar    
   7 C7             1.2661    -2.1472    -0.0211 C.2     
   8 C8             2.3871    -2.9264    -0.0359 C.2     
   9 N9             1.9889    -4.2133    -0.0377 N.pl3   
  10 N10            0.5892    -4.2392    -0.0237 N.2     
  11 C11            0.1509    -3.0086    -0.0084 C.2     
  12 C12            2.8692    -5.3843    -0.0523 C.3     
  13 C13            1.2203     3.5656     0.0091 C.3     
  14 N14            1.2419     4.0469     1.3926 N.pl3   
  15 C15            1.9842     4.6732     3.4153 C.ar    
  16 C16            0.1458     4.4118     2.1018 C.2     
  17 C17            0.5168     4.8083     3.3521 C.2     
  18 C18            4.6623     4.1901     2.9003 C.ar    
  19 C19            3.7286     3.9500     1.9129 C.ar    
  20 C20            2.3801     4.1871     2.1595 C.ar    
  21 C21            2.9369     4.9154     4.4041 C.ar    
  22 C22            4.2706     4.6796     4.1398 C.ar    
  23 C23           -0.3696     5.2820     4.4237 C.2     
  24 O24            0.0968     5.6115     5.4980 O.2     
  25 N25           -1.6996     5.3516     4.2166 N.am    
  26 C26           -2.5835     5.8239     5.2851 C.3     
  27 C27           -3.5703     7.8456     6.3721 C.3     
  28 C28           -2.6472     7.3523     5.2561 C.3     
  29 C29           -3.9868     5.2510     5.0767 C.3     
  30 C30           -4.9100     5.7443     6.1926 C.3     
  31 C31           -4.9736     7.2727     6.1636 C.3     
  32 O32           -3.9274     3.8235     5.1038 O.3     
  33 F33            5.9705     3.9581     2.6552 F       
  34 F34            2.5564     5.3791     5.6146 F       
  35 H35           -0.9523     1.9190     0.0170 H       
  36 H36           -0.9213    -0.5643     0.0082 H       
  37 H37            3.3177     1.8658    -0.0192 H       
  38 H38            3.4082    -2.5747    -0.0452 H       
  39 H39           -0.8852    -2.7045     0.0086 H       
  40 H40            3.0982    -5.6794     0.9717 H       
  41 H41            2.3707    -6.2071    -0.5647 H       
  42 H42            3.7935    -5.1375    -0.5747 H       
  43 H43            2.1118     3.9157    -0.5114 H       
  44 H44            0.3322     3.9472    -0.4946 H       
  45 H45           -0.8687     4.3917     1.7318 H       
  46 H46            4.0445     3.5786     0.9492 H       
  47 H47            5.0111     4.8630     4.9042 H       
  48 H48           -2.0715     5.0889     3.3601 H       
  49 H49           -2.1962     5.4946     6.2493 H       
  50 H50           -3.1830     7.5163     7.3362 H       
  51 H51           -3.6156     8.9344     6.3514 H       
  52 H52           -1.6474     7.7604     5.4046 H       
  53 H53           -3.0345     7.6816     4.2920 H       
  54 H54           -4.3742     5.5803     4.1125 H       
  55 H55           -5.9098     5.3361     6.0441 H       
  56 H56           -4.5227     5.4150     7.1568 H       
  57 H57           -5.6313     7.6241     6.9587 H       
  58 H58           -5.3610     7.6020     5.1995 H       
  59 H59           -4.7835     3.3917     4.9777 H       
@<TRIPOS>BOND
   1    1    2 ar
   2    1    6 ar
   3    1   35 1
   4    2    3 ar
   5    2   36 1
   6    3    4 ar
   7    3    7 1
   8    4    5 ar
   9    5    6 ar
  10    5   37 1
  11    6   13 1
  12    7    8 2
  13    7   11 1
  14    8    9 1
  15    8   38 1
  16    9   10 1
  17    9   12 1
  18   10   11 2
  19   11   39 1
  20   12   40 1
  21   12   41 1
  22   12   42 1
  23   13   14 1
  24   13   43 1
  25   13   44 1
  26   14   16 1
  27   14   20 1
  28   15   17 1
  29   15   21 ar
  30   15   20 ar
  31   16   17 2
  32   16   45 1
  33   17   23 1
  34   18   19 ar
  35   18   22 ar
  36   18   33 1
  37   19   20 ar
  38   19   46 1
  39   21   22 ar
  40   21   34 1
  41   22   47 1
  42   23   24 2
  43   23   25 am
  44   25   26 1
  45   25   48 1
  46   26   29 1
  47   26   28 1
  48   26   49 1
  49   27   28 1
  50   27   31 1
  51   27   50 1
  52   27   51 1
  53   28   52 1
  54   28   53 1
  55   29   30 1
  56   29   32 1
  57   29   54 1
  58   30   31 1
  59   30   55 1
  60   30   56 1
  61   31   57 1
  62   31   58 1
  63   32   59 1

#	End of record

