#	Name: ASD00170596
#	Creating user name:	WinNT
#	Creation time:	15. 06. 2019 18:32

#	Modifying user name:	WinNT
#	Modification time:	15. 06. 2019 18:32

#	Program:	/corina/corina34_cracker 3.40 0067  02.08.2006

@<TRIPOS>MOLECULE
ASD00170596
  51   55    0    0    0
SMALL
NO_CHARGES


@<TRIPOS>ATOM
   1 C1            -0.0130     1.2160     0.0085 C.2     
   2 O2             0.4923     0.9084     1.0734 O.2     
   3 C3             0.6520     0.8501    -1.2568 C.ar    
   4 C4             0.0275     1.0890    -2.4722 C.ar    
   5 C5             0.6480     0.7464    -3.6667 C.ar    
   6 C6             1.8823     0.1684    -3.6801 C.ar    
   7 C7             2.5525    -0.0918    -2.4724 C.ar    
   8 C8             3.8258    -0.6875    -2.4607 C.ar    
   9 C9             4.4470    -0.9260    -1.2730 C.ar    
  10 C10            3.8391    -0.5881    -0.0661 C.ar    
  11 C11            2.6057    -0.0094    -0.0409 C.ar    
  12 C12            1.9387     0.2558    -1.2445 C.ar    
  13 C13           -5.0438     1.7608    -0.2735 C.3     
  14 C14           -3.5882     2.1659    -0.1470 C.2     
  15 C15           -2.5725     1.2940    -0.1503 C.2     
  16 C16           -2.7813    -0.2067    -0.2818 C.3     
  17 C17           -4.2535    -0.5118     0.0123 C.3     
  18 N18           -5.1045     0.3834    -0.7847 N.3     
  19 C19           -1.2828     1.9433    -0.0159 C.2     
  20 C20           -1.3737     3.3089     0.0866 C.2     
  21 S21           -3.0000     3.8099     0.0216 S.3     
  22 C22           -6.4900    -0.1033    -0.8231 C.3     
  23 C23           -7.2733     0.6902    -1.8369 C.ar    
  24 C24           -7.3320     0.2657    -3.1512 C.ar    
  25 C25           -8.0504     0.9936    -4.0812 C.ar    
  26 C26           -8.7105     2.1457    -3.6968 C.ar    
  27 C27           -8.6526     2.5697    -2.3824 C.ar    
  28 C28           -7.9377     1.8395    -1.4515 C.ar    
  29 N29           -0.2951     4.1593     0.2235 N.pl3   
  30 H30           -0.9511     1.5456    -2.4898 H       
  31 H31            0.1433     0.9412    -4.6015 H       
  32 H32            2.3460    -0.0905    -4.6205 H       
  33 H33            4.3085    -0.9549    -3.3891 H       
  34 H34            5.4250    -1.3841    -1.2665 H       
  35 H35            4.3525    -0.7879     0.8628 H       
  36 H36            2.1461     0.2474     0.9021 H       
  37 H37           -5.5236     1.8097     0.7040 H       
  38 H38           -5.5513     2.4312    -0.9671 H       
  39 H39           -2.5349    -0.5250    -1.2948 H       
  40 H40           -2.1470    -0.7304     0.4334 H       
  41 H41           -4.4697    -1.5476    -0.2494 H       
  42 H42           -4.4528    -0.3548     1.0724 H       
  43 H43           -6.4973    -1.1570    -1.1021 H       
  44 H44           -6.9442     0.0152     0.1607 H       
  45 H45           -6.8162    -0.6344    -3.4515 H       
  46 H46           -8.0957     0.6624    -5.1081 H       
  47 H47           -9.2712     2.7148    -4.4236 H       
  48 H48           -9.1680     3.4700    -2.0822 H       
  49 H49           -7.8954     2.1687    -0.4237 H       
  50 H50            0.5986     3.7966     0.3260 H       
  51 H51           -0.4309     5.1198     0.2173 H       
@<TRIPOS>BOND
   1    1    2 2
   2    1    3 1
   3    1   19 1
   4    3    4 ar
   5    3   12 ar
   6    4    5 ar
   7    4   30 1
   8    5    6 ar
   9    5   31 1
  10    6    7 ar
  11    6   32 1
  12    7    8 ar
  13    7   12 ar
  14    8    9 ar
  15    8   33 1
  16    9   10 ar
  17    9   34 1
  18   10   11 ar
  19   10   35 1
  20   11   12 ar
  21   11   36 1
  22   13   14 1
  23   13   18 1
  24   13   37 1
  25   13   38 1
  26   14   15 2
  27   14   21 1
  28   15   16 1
  29   15   19 1
  30   16   17 1
  31   16   39 1
  32   16   40 1
  33   17   18 1
  34   17   41 1
  35   17   42 1
  36   18   22 1
  37   19   20 2
  38   20   21 1
  39   20   29 1
  40   22   23 1
  41   22   43 1
  42   22   44 1
  43   23   24 ar
  44   23   28 ar
  45   24   25 ar
  46   24   45 1
  47   25   26 ar
  48   25   46 1
  49   26   27 ar
  50   26   47 1
  51   27   28 ar
  52   27   48 1
  53   28   49 1
  54   29   50 1
  55   29   51 1

#	End of record

