#	Name: ASD01190056
#	Creating user name:	WinNT
#	Creation time:	15. 06. 2019 19:07

#	Modifying user name:	WinNT
#	Modification time:	15. 06. 2019 19:07

#	Program:	/corina/corina34_cracker 3.40 0067  02.08.2006

@<TRIPOS>MOLECULE
ASD01190056
  56   60    0    0    0
SMALL
NO_CHARGES


@<TRIPOS>ATOM
   1 C1            -2.5685     1.7159    -0.9815 C.ar    
   2 C2            -2.8392     0.3440    -1.1483 C.ar    
   3 C3            -3.7818    -0.0597    -2.0964 C.ar    
   4 C4            -4.4161     0.9183    -2.8394 C.ar    
   5 C5            -4.1002     2.2505    -2.6222 C.ar    
   6 N6            -3.2085     2.6097    -1.7234 N.ar    
   7 N7            -1.6113     1.8195    -0.0009 N.am    
   8 C8            -1.9803    -0.3611    -0.1953 C.2     
   9 C9            -1.2698     0.5742     0.4545 C.2     
  10 S10           -0.9649     3.2417     0.5487 S.o2    
  11 O11           -2.0620     4.1047     0.8146 O.2     
  12 O12            0.0029     2.8905     1.5281 O.2     
  13 N13           -0.1308     3.9201    -0.7108 N.am    
  14 C14           -0.8100     4.8365    -1.6301 C.3     
  15 C15            1.2863     3.6039    -0.9057 C.3     
  16 C16           -1.9027    -1.8519     0.0110 C.3     
  17 C17           -0.8513    -2.1651     1.0774 C.3     
  18 O18           -3.1756    -2.3404     0.4390 O.3     
  19 N19           -0.6740    -4.5066    -4.7903 N.pl3   
  20 N20           -1.7011    -5.4561    -4.7807 N.2     
  21 C21           -2.4409    -5.3047    -3.7189 C.2     
  22 C22           -1.8968    -4.1894    -2.9507 C.ar    
  23 C23           -2.2549    -3.5705    -1.7478 C.ar    
  24 C24           -1.5185    -2.5189    -1.2846 C.ar    
  25 C25           -0.4180    -2.0572    -1.9964 C.ar    
  26 C26           -0.0492    -2.6449    -3.1734 C.ar    
  27 C27           -0.7811    -3.7198    -3.6705 C.ar    
  28 C28            0.3094    -4.3825    -5.7803 C.ar    
  29 C29            0.8075    -5.5148    -6.4113 C.ar    
  30 C30            1.7769    -5.3902    -7.3870 C.ar    
  31 C31            2.2523    -4.1373    -7.7361 C.ar    
  32 C32            1.7569    -3.0068    -7.1080 C.ar    
  33 C33            0.7833    -3.1266    -6.1359 C.ar    
  34 F34            3.2010    -4.0176    -8.6905 F       
  35 F35           -1.2080    -1.5458     2.2800 F       
  36 F36           -0.7793    -3.5491     1.2689 F       
  37 F37            0.3949    -1.6869     0.6582 F       
  38 H38           -4.0082    -1.1052    -2.2450 H       
  39 H39           -5.1510     0.6469    -3.5828 H       
  40 H40           -4.5978     3.0118    -3.2046 H       
  41 H41           -0.5398     0.3742     1.2248 H       
  42 H42           -1.8513     4.9488    -1.3278 H       
  43 H43           -0.3174     5.8085    -1.6042 H       
  44 H44           -0.7668     4.4341    -2.6422 H       
  45 H45            1.3782     2.7320    -1.5534 H       
  46 H46            1.7881     4.4541    -1.3677 H       
  47 H47            1.7469     3.3903     0.0588 H       
  48 H48           -3.8916    -2.1762    -0.1898 H       
  49 H49           -3.3034    -5.8986    -3.4545 H       
  50 H50           -3.1093    -3.9230    -1.1891 H       
  51 H51            0.1525    -1.2234    -1.6148 H       
  52 H52            0.8080    -2.2761    -3.7171 H       
  53 H53            0.4373    -6.4921    -6.1391 H       
  54 H54            2.1648    -6.2706    -7.8778 H       
  55 H55            2.1292    -2.0306    -7.3815 H       
  56 H56            0.3937    -2.2444    -5.6497 H       
@<TRIPOS>BOND
   1    1    2 ar
   2    1    6 ar
   3    1    7 1
   4    2    3 ar
   5    2    8 1
   6    3    4 ar
   7    3   38 1
   8    4    5 ar
   9    4   39 1
  10    5    6 ar
  11    5   40 1
  12    7    9 1
  13    7   10 am
  14    8    9 2
  15    8   16 1
  16    9   41 1
  17   10   11 2
  18   10   12 2
  19   10   13 am
  20   13   14 1
  21   13   15 1
  22   14   42 1
  23   14   43 1
  24   14   44 1
  25   15   45 1
  26   15   46 1
  27   15   47 1
  28   16   17 1
  29   16   18 1
  30   16   24 1
  31   17   35 1
  32   17   36 1
  33   17   37 1
  34   18   48 1
  35   19   20 1
  36   19   27 1
  37   19   28 1
  38   20   21 2
  39   21   22 1
  40   21   49 1
  41   22   23 ar
  42   22   27 ar
  43   23   24 ar
  44   23   50 1
  45   24   25 ar
  46   25   26 ar
  47   25   51 1
  48   26   27 ar
  49   26   52 1
  50   28   29 ar
  51   28   33 ar
  52   29   30 ar
  53   29   53 1
  54   30   31 ar
  55   30   54 1
  56   31   32 ar
  57   31   34 1
  58   32   33 ar
  59   32   55 1
  60   33   56 1

#	End of record

