#	Name: ASD00310329
#	Creating user name:	WinNT
#	Creation time:	15. 06. 2019 18:34

#	Modifying user name:	WinNT
#	Modification time:	15. 06. 2019 18:34

#	Program:	/corina/corina34_cracker 3.40 0067  02.08.2006

@<TRIPOS>MOLECULE
ASD00310329
  40   41    0    0    0
SMALL
NO_CHARGES


@<TRIPOS>ATOM
   1 N1            -0.0169     1.3954     0.0097 N.2     
   2 N2             0.0021    -0.0041     0.0020 N.pl3   
   3 C3             1.2678    -0.4441    -0.0124 C.2     
   4 C4             2.1013     0.6588    -0.0145 C.ar    
   5 C5             3.4997     0.8487    -0.0272 C.ar    
   6 C6             4.0037     2.1089    -0.0256 C.ar    
   7 C7             3.1726     3.2324    -0.0112 C.ar    
   8 C8             1.8210     3.1215     0.0020 C.ar    
   9 C9             1.2262     1.8414     0.0002 C.ar    
  10 C10           -1.1861    -0.8611     0.0088 C.3     
  11 O11           -0.7843    -2.2324    -0.0019 O.3     
  12 C12           -1.8736    -3.1573     0.0036 C.3     
  13 C13           -1.3288    -4.5870    -0.0086 C.3     
  14 Si14          -2.7490    -5.7928    -0.0015 Si      
  15 C15           -3.8048    -5.5176    -1.5115 C.3     
  16 C16           -2.0856    -7.5336    -0.0164 C.3     
  17 C17           -3.7766    -5.5329     1.5306 C.3     
  18 C18            3.7954     4.6047    -0.0097 C.3     
  19 Br19           5.8791     2.3508    -0.0428 Br      
  20 H20            1.5812    -1.4776    -0.0204 H       
  21 H21            4.1641    -0.0027    -0.0377 H       
  22 H22            1.2034     4.0074     0.0137 H       
  23 H23           -1.7730    -0.6614     0.9052 H       
  24 H24           -1.7896    -0.6525    -0.8746 H       
  25 H25           -2.4748    -3.0052     0.9000 H       
  26 H26           -2.4914    -2.9963    -0.8799 H       
  27 H27           -0.7276    -4.7390    -0.9050 H       
  28 H28           -0.7110    -4.7480     0.8749 H       
  29 H29           -3.2036    -5.6696    -2.4079 H       
  30 H30           -4.6357    -6.2231    -1.5073 H       
  31 H31           -4.1929    -4.4991    -1.5028 H       
  32 H32           -1.4679    -7.6946     0.8671 H       
  33 H33           -2.9165    -8.2391    -0.0122 H       
  34 H34           -1.4844    -7.6857    -0.9128 H       
  35 H35           -4.1647    -4.5143     1.5393 H       
  36 H36           -4.6075    -6.2383     1.5348 H       
  37 H37           -3.1588    -5.6939     2.4141 H       
  38 H38            3.9354     4.9412    -1.0370 H       
  39 H39            3.1402     5.3004     0.5145 H       
  40 H40            4.7610     4.5649     0.4944 H       
@<TRIPOS>BOND
   1    1    2 1
   2    1    9 2
   3    2    3 1
   4    2   10 1
   5    3    4 2
   6    3   20 1
   7    4    5 ar
   8    4    9 ar
   9    5    6 ar
  10    5   21 1
  11    6    7 ar
  12    6   19 1
  13    7    8 ar
  14    7   18 1
  15    8    9 ar
  16    8   22 1
  17   10   11 1
  18   10   23 1
  19   10   24 1
  20   11   12 1
  21   12   13 1
  22   12   25 1
  23   12   26 1
  24   13   14 1
  25   13   27 1
  26   13   28 1
  27   14   15 1
  28   14   16 1
  29   14   17 1
  30   15   29 1
  31   15   30 1
  32   15   31 1
  33   16   32 1
  34   16   33 1
  35   16   34 1
  36   17   35 1
  37   17   36 1
  38   17   37 1
  39   18   38 1
  40   18   39 1
  41   18   40 1

#	End of record

