#	Name: ASD05313098
#	Creating user name:	WinNT
#	Creation time:	15. 06. 2019 20:58

#	Modifying user name:	WinNT
#	Modification time:	15. 06. 2019 20:58

#	Program:	/corina/corina34_cracker 3.40 0067  02.08.2006

@<TRIPOS>MOLECULE
ASD05313098
  41   44    0    0    0
SMALL
NO_CHARGES


@<TRIPOS>ATOM
   1 C1            -0.0853     1.0877     0.6929 C.2     
   2 C2             0.0526    -0.3895     0.4111 C.3     
   3 N3             0.9592     1.9529     0.7021 N.pl3   
   4 N4             1.4234    -0.6060    -0.0890 N.am    
   5 C5             2.5276     0.0848     0.5942 C.3     
   6 C6             2.3520     1.5995     0.4333 C.3     
   7 N7            -0.8630     3.0029     1.1517 N.2     
   8 N8            -1.1611     1.7626     0.9676 N.2     
   9 C9             0.4348     3.1734     1.0012 C.2     
  10 C10            1.1790     4.4449     1.1345 C.ar    
  11 C11            0.4933     5.6186     1.4472 C.ar    
  12 C12            1.2036     6.7999     1.5689 C.ar    
  13 C13            2.5775     6.7701     1.3741 C.ar    
  14 C14            3.1936     5.5709     1.0662 C.ar    
  15 N15            2.4954     4.4589     0.9610 N.ar    
  16 C16            1.6574    -1.4143    -1.1419 C.2     
  17 O17            2.7794    -1.5050    -1.6010 O.2     
  18 C18            0.5505    -2.1900    -1.7379 C.ar    
  19 C19            0.3197    -2.1376    -3.1145 C.ar    
  20 C20           -0.7144    -2.8632    -3.6653 C.ar    
  21 C21           -1.5250    -3.6444    -2.8555 C.ar    
  22 C22           -1.3007    -3.6996    -1.4886 C.ar    
  23 C23           -0.2652    -2.9826    -0.9280 C.ar    
  24 C24            1.1995    -1.2888    -3.9956 C.3     
  25 F25            0.7743    -1.3989    -5.3239 F       
  26 F26            1.1169     0.0472    -3.5888 F       
  27 F27            2.5242    -1.7266    -3.8922 F       
  28 F28           -2.5374    -4.3537    -3.4006 F       
  29 H29           -0.1034    -0.9591     1.3273 H       
  30 H30           -0.6715    -0.6932    -0.3448 H       
  31 H31            2.5179    -0.1722     1.6534 H       
  32 H32            3.4765    -0.2206     0.1534 H       
  33 H33            2.6115     1.8898    -0.5848 H       
  34 H34            3.0019     2.1186     1.1378 H       
  35 H35           -0.5769     5.6057     1.5919 H       
  36 H36            0.7001     7.7245     1.8098 H       
  37 H37            3.1601     7.6753     1.4617 H       
  38 H38            4.2625     5.5450     0.9137 H       
  39 H39           -0.8939    -2.8231    -4.7295 H       
  40 H40           -1.9354    -4.3090    -0.8624 H       
  41 H41           -0.0882    -3.0302     0.1364 H       
@<TRIPOS>BOND
   1    1    2 1
   2    1    3 1
   3    1    8 2
   4    2    4 1
   5    2   29 1
   6    2   30 1
   7    3    6 1
   8    3    9 1
   9    4    5 1
  10    4   16 am
  11    5    6 1
  12    5   31 1
  13    5   32 1
  14    6   33 1
  15    6   34 1
  16    7    8 1
  17    7    9 2
  18    9   10 1
  19   10   11 ar
  20   10   15 ar
  21   11   12 ar
  22   11   35 1
  23   12   13 ar
  24   12   36 1
  25   13   14 ar
  26   13   37 1
  27   14   15 ar
  28   14   38 1
  29   16   17 2
  30   16   18 1
  31   18   19 ar
  32   18   23 ar
  33   19   20 ar
  34   19   24 1
  35   20   21 ar
  36   20   39 1
  37   21   22 ar
  38   21   28 1
  39   22   23 ar
  40   22   40 1
  41   23   41 1
  42   24   25 1
  43   24   26 1
  44   24   27 1

#	End of record

