#	Name: ASD01911202
#	Creating user name:	WinNT
#	Creation time:	15. 06. 2019 19:57

#	Modifying user name:	WinNT
#	Modification time:	15. 06. 2019 19:57

#	Program:	/corina/corina34_cracker 3.40 0067  02.08.2006

@<TRIPOS>MOLECULE
ASD01911202
  66   68    0    0    0
SMALL
NO_CHARGES


@<TRIPOS>ATOM
   1 C1             2.7751    -2.1963     0.4601 C.ar    
   2 N2             2.0387    -3.2101     0.0613 N.ar    
   3 C3             2.4214    -3.9993    -0.9354 C.ar    
   4 C4             3.6278    -3.7735    -1.5940 C.ar    
   5 C5             4.4245    -2.7118    -1.1947 C.ar    
   6 C6             3.9867    -1.9129    -0.1502 C.ar    
   7 C7             1.5585    -5.1296    -1.3500 C.2     
   8 N8             0.3903    -5.3534    -0.7162 N.am    
   9 C9            -0.4677    -6.3621    -1.1666 C.ar    
  10 C10           -1.8406    -6.2319    -1.0034 C.ar    
  11 C11           -2.6856    -7.2293    -1.4495 C.ar    
  12 C12           -2.1653    -8.3575    -2.0585 C.ar    
  13 C13           -0.7973    -8.4901    -2.2221 C.ar    
  14 C14            0.0516    -7.4934    -1.7832 C.ar    
  15 C15           -2.4080    -5.0036    -0.3396 C.3     
  16 N16           -2.6038    -3.9533    -1.3420 N.am    
  17 O17            1.9039    -5.8552    -2.2617 O.2     
  18 Cl18          -3.2301    -9.6091    -2.6180 Cl      
  19 C19           -3.7500    -3.9018    -2.0491 C.2     
  20 C20           -3.8800    -2.9569    -3.1787 C.ar    
  21 C21           -5.0024    -3.0048    -4.0070 C.ar    
  22 C22           -5.1177    -2.1198    -5.0591 C.ar    
  23 C23           -4.1236    -1.1867    -5.2942 C.ar    
  24 C24           -3.0084    -1.1339    -4.4770 C.ar    
  25 C25           -2.8835    -2.0093    -3.4180 C.ar    
  26 O26           -4.6770    -4.6323    -1.7580 O.2     
  27 C27           -1.5537    -2.9589    -1.5757 C.3     
  28 C28           -1.9306    -0.1142    -4.7406 C.3     
  29 C29           -2.0865    -1.5652    -1.2368 C.3     
  30 C30           -2.3750    -1.4805     0.2634 C.3     
  31 C31           -1.0415    -0.5138    -1.6154 C.3     
  32 C32           -6.3288    -2.1700    -5.9544 C.3     
  33 C33           -2.3392     1.2288    -4.1320 C.3     
  34 C34           -7.4153    -1.2495    -5.3948 C.3     
  35 H35            2.4289    -1.5733     1.2716 H       
  36 H36            3.9381    -4.4168    -2.4042 H       
  37 H37            5.3651    -2.5117    -1.6862 H       
  38 H38            4.5838    -1.0777     0.1847 H       
  39 H39            0.1445    -4.8149     0.0522 H       
  40 H40           -3.7534    -7.1286    -1.3224 H       
  41 H41           -0.3937    -9.3720    -2.6972 H       
  42 H42            1.1189    -7.5972    -1.9114 H       
  43 H43           -3.3648    -5.2489     0.1213 H       
  44 H44           -1.7159    -4.6514     0.4252 H       
  45 H45           -5.7787    -3.7332    -3.8249 H       
  46 H46           -4.2183    -0.4966    -6.1196 H       
  47 H47           -2.0127    -1.9669    -2.7806 H       
  48 H48           -0.6941    -3.1828    -0.9440 H       
  49 H49           -1.2524    -2.9879    -2.6228 H       
  50 H50           -0.9962    -0.4482    -4.2896 H       
  51 H51           -1.7943     0.0007    -5.8160 H       
  52 H52           -3.0049    -1.3819    -1.7944 H       
  53 H53           -2.6691    -0.4627     0.5198 H       
  54 H54           -3.1826    -2.1670     0.5174 H       
  55 H55           -1.4788    -1.7513     0.8216 H       
  56 H56           -0.6316    -0.7463    -2.5983 H       
  57 H57           -1.5090     0.4706    -1.6402 H       
  58 H58           -0.2394    -0.5165    -0.8773 H       
  59 H59           -6.0539    -1.8403    -6.9563 H       
  60 H60           -6.7057    -3.1918    -5.9988 H       
  61 H61           -2.4304     1.1250    -3.0508 H       
  62 H62           -1.5816     1.9777    -4.3626 H       
  63 H63           -3.2969     1.5404    -4.5491 H       
  64 H64           -7.6902    -1.5793    -4.3929 H       
  65 H65           -7.0384    -0.2277    -5.3503 H       
  66 H66           -8.2913    -1.2858    -6.0424 H       
@<TRIPOS>BOND
   1    1    2 ar
   2    1    6 ar
   3    1   35 1
   4    2    3 ar
   5    3    4 ar
   6    3    7 1
   7    4    5 ar
   8    4   36 1
   9    5    6 ar
  10    5   37 1
  11    6   38 1
  12    7    8 am
  13    7   17 2
  14    8    9 1
  15    8   39 1
  16    9   10 ar
  17    9   14 ar
  18   10   11 ar
  19   10   15 1
  20   11   12 ar
  21   11   40 1
  22   12   13 ar
  23   12   18 1
  24   13   14 ar
  25   13   41 1
  26   14   42 1
  27   15   16 1
  28   15   43 1
  29   15   44 1
  30   16   19 am
  31   16   27 1
  32   19   20 1
  33   19   26 2
  34   20   21 ar
  35   20   25 ar
  36   21   22 ar
  37   21   45 1
  38   22   23 ar
  39   22   32 1
  40   23   24 ar
  41   23   46 1
  42   24   25 ar
  43   24   28 1
  44   25   47 1
  45   27   29 1
  46   27   48 1
  47   27   49 1
  48   28   33 1
  49   28   50 1
  50   28   51 1
  51   29   30 1
  52   29   31 1
  53   29   52 1
  54   30   53 1
  55   30   54 1
  56   30   55 1
  57   31   56 1
  58   31   57 1
  59   31   58 1
  60   32   34 1
  61   32   59 1
  62   32   60 1
  63   33   61 1
  64   33   62 1
  65   33   63 1
  66   34   64 1
  67   34   65 1
  68   34   66 1

#	End of record

