#	Name: ASD01530062
#	Creating user name:	WinNT
#	Creation time:	15. 06. 2019 19:22

#	Modifying user name:	WinNT
#	Modification time:	15. 06. 2019 19:22

#	Program:	/corina/corina34_cracker 3.40 0067  02.08.2006

@<TRIPOS>MOLECULE
ASD01530062
  42   44    0    0    0
SMALL
NO_CHARGES


@<TRIPOS>ATOM
   1 C1            -0.0169     1.3926     0.0097 C.ar    
   2 C2             0.0021    -0.0041     0.0020 C.ar    
   3 C3             1.2241    -0.6799    -0.0133 C.ar    
   4 C4             2.4047     0.0344    -0.0208 C.ar    
   5 C5             2.3794     1.4155    -0.0132 C.ar    
   6 C6             1.1686     2.0931     0.0021 C.ar    
   7 C7             3.4748     2.4569    -0.0181 C.3     
   8 O8             2.8577     3.6826     0.4159 O.3     
   9 C9             1.4821     3.5713     0.0072 C.3     
  10 C10            4.5715     2.0613     0.9367 C.ar    
  11 C11            4.0387     2.6221    -1.4307 C.3     
  12 C12            4.5111     2.4566     2.2601 C.ar    
  13 C13            5.5160     2.0940     3.1367 C.ar    
  14 C14            6.5837     1.3345     2.6891 C.ar    
  15 C15            6.6432     0.9392     1.3635 C.ar    
  16 C16            5.6344     1.2985     0.4899 C.ar    
  17 C17            5.2269     3.5854    -1.3961 C.3     
  18 C18            5.7908     3.7505    -2.8088 C.3     
  19 N19            6.9316     4.6755    -2.7756 N.3     
  20 C20            7.5001     4.8587    -4.1177 C.3     
  21 C21           -1.2264    -0.7399     0.0103 C.1     
  22 N22           -2.2009    -1.3236     0.0169 N.1     
  23 F23            7.5670     0.9799     3.5451 F       
  24 H24           -0.9585     1.9215     0.0170 H       
  25 H25            1.2451    -1.7596    -0.0190 H       
  26 H26            3.3503    -0.4874    -0.0324 H       
  27 H27            1.3526     3.9861    -0.9924 H       
  28 H28            0.8366     4.0898     0.7161 H       
  29 H29            4.3674     1.6530    -1.8063 H       
  30 H30            3.2653     3.0224    -2.0862 H       
  31 H31            3.6783     3.0492     2.6089 H       
  32 H32            5.4688     2.4032     4.1704 H       
  33 H33            7.4756     0.3468     1.0132 H       
  34 H34            5.6785     0.9868    -0.5432 H       
  35 H35            4.8982     4.5544    -1.0206 H       
  36 H36            6.0003     3.1850    -0.7407 H       
  37 H37            6.1195     2.7815    -3.1844 H       
  38 H38            5.0174     4.1509    -3.4643 H       
  39 H39            6.6674     5.5611    -2.3708 H       
  40 H40            7.8406     3.8973    -4.5024 H       
  41 H41            6.7385     5.2667    -4.7822 H       
  42 H42            8.3428     5.5478    -4.0644 H       
@<TRIPOS>BOND
   1    1    2 ar
   2    1    6 ar
   3    1   24 1
   4    2    3 ar
   5    2   21 1
   6    3    4 ar
   7    3   25 1
   8    4    5 ar
   9    4   26 1
  10    5    7 1
  11    5    6 ar
  12    6    9 1
  13    7    8 1
  14    7   10 1
  15    7   11 1
  16    8    9 1
  17    9   27 1
  18    9   28 1
  19   10   12 ar
  20   10   16 ar
  21   11   17 1
  22   11   29 1
  23   11   30 1
  24   12   13 ar
  25   12   31 1
  26   13   14 ar
  27   13   32 1
  28   14   15 ar
  29   14   23 1
  30   15   16 ar
  31   15   33 1
  32   16   34 1
  33   17   18 1
  34   17   35 1
  35   17   36 1
  36   18   19 1
  37   18   37 1
  38   18   38 1
  39   19   20 1
  40   19   39 1
  41   20   40 1
  42   20   41 1
  43   20   42 1
  44   21   22 3

#	End of record

