#	Name: ASD00241024
#	Creating user name:	WinNT
#	Creation time:	15. 06. 2019 18:33

#	Modifying user name:	WinNT
#	Modification time:	15. 06. 2019 18:33

#	Program:	/corina/corina34_cracker 3.40 0067  02.08.2006

@<TRIPOS>MOLECULE
ASD00241024
  31   33    0    0    0
SMALL
NO_CHARGES


@<TRIPOS>ATOM
   1 N1            -0.0158     1.3162     0.0093 N.ar    
   2 C2             0.0021    -0.0041     0.0020 C.ar    
   3 N3             1.1222    -0.6955    -0.0124 N.ar    
   4 C4             2.2991    -0.0783    -0.0203 C.ar    
   5 C5             2.3336     1.3265    -0.0131 C.ar    
   6 C6             1.1116     2.0200     0.0023 C.ar    
   7 N7             3.6082    -0.4886    -0.0350 N.pl3   
   8 C8             4.3871     0.6301    -0.0364 C.2     
   9 N9             3.6375     1.6938    -0.0236 N.2     
  10 C10            4.0821    -1.8748    -0.0466 C.3     
  11 O11            5.4243    -1.9517     0.4810 O.3     
  12 C12            5.9593    -3.1963    -0.0198 C.3     
  13 C13            5.4615    -3.2807    -1.4798 C.3     
  14 C14            4.1982    -2.3914    -1.4978 C.3     
  15 C15            7.4885    -3.1735     0.0211 C.3     
  16 F16            4.3630    -1.3236    -2.3865 F       
  17 O17            5.1298    -4.6288    -1.8185 O.3     
  18 O18            7.9282    -3.1384     1.3803 O.3     
  19 N19            1.0828     3.4035     0.0100 N.pl3   
  20 H20           -0.9374    -0.5367     0.0085 H       
  21 H21            5.4671     0.6332    -0.0467 H       
  22 H22            3.4103    -2.5095     0.5313 H       
  23 H23            5.5758    -4.0352     0.5610 H       
  24 H24            6.2145    -2.8884    -2.1633 H       
  25 H25            3.3205    -2.9800    -1.7650 H       
  26 H26            7.8783    -4.0685    -0.4639 H       
  27 H27            7.8528    -2.2891    -0.5016 H       
  28 H28            4.8113    -4.7396    -2.7248 H       
  29 H29            8.8897    -3.1224     1.4824 H       
  30 H30            1.9125     3.9060     0.0048 H       
  31 H31            0.2328     3.8709     0.0206 H       
@<TRIPOS>BOND
   1    1    2 ar
   2    1    6 ar
   3    2    3 ar
   4    2   20 1
   5    3    4 ar
   6    4    5 ar
   7    4    7 1
   8    5    6 ar
   9    5    9 1
  10    6   19 1
  11    7    8 1
  12    7   10 1
  13    8    9 2
  14    8   21 1
  15   10   11 1
  16   10   14 1
  17   10   22 1
  18   11   12 1
  19   12   13 1
  20   12   15 1
  21   12   23 1
  22   13   14 1
  23   13   17 1
  24   13   24 1
  25   14   16 1
  26   14   25 1
  27   15   18 1
  28   15   26 1
  29   15   27 1
  30   17   28 1
  31   18   29 1
  32   19   30 1
  33   19   31 1

#	End of record

