#	Name: ASD02032014
#	Creating user name:	WinNT
#	Creation time:	15. 06. 2019 20:16

#	Modifying user name:	WinNT
#	Modification time:	15. 06. 2019 20:16

#	Program:	/corina/corina34_cracker 3.40 0067  02.08.2006

@<TRIPOS>MOLECULE
ASD02032014
  54   56    0    0    0
SMALL
NO_CHARGES


@<TRIPOS>ATOM
   1 C1            -0.0167     1.3831     0.0096 C.ar    
   2 C2             0.0021    -0.0041     0.0020 C.ar    
   3 C3            -1.1854    -0.7098     0.0095 C.ar    
   4 C4            -2.3921    -0.0349     0.0246 C.ar    
   5 C5            -2.4135     1.3476     0.0318 C.ar    
   6 C6            -1.2287     2.0579     0.0306 C.ar    
   7 O7             1.1501     2.0797     0.0022 O.3     
   8 C8            -3.6860    -0.8073     0.0328 C.3     
   9 C9            -4.2388    -0.8613     1.4584 C.3     
  10 O10           -4.6322    -0.1607    -0.8208 O.3     
  11 C11           -5.4845    -1.7490     1.4891 C.3     
  12 N12           -5.9456    -1.8979     2.8759 N.3     
  13 C13           -7.2647    -2.5413     2.9257 C.3     
  14 C14           -7.7763    -2.5482     4.3680 C.3     
  15 C15           -6.7837    -3.3075     5.2528 C.3     
  16 C16           -5.4068    -2.6462     5.1453 C.3     
  17 C17           -4.9640    -2.6365     3.6805 C.3     
  18 C18           -7.2589    -3.2657     6.7065 C.3     
  19 C19           -6.3495    -4.1148     7.5569 C.ar    
  20 C20           -5.2330    -3.5538     8.1481 C.ar    
  21 C21           -6.6349    -5.4535     7.7502 C.ar    
  22 C22           -5.8007    -6.2324     8.5301 C.ar    
  23 C23           -4.6809    -5.6728     9.1165 C.ar    
  24 C24           -4.3989    -4.3327     8.9281 C.ar    
  25 C25           -4.6077     0.5512     1.9162 C.3     
  26 H26            0.9443    -0.5317    -0.0101 H       
  27 H27           -1.1713    -1.7897     0.0032 H       
  28 H28           -3.3573     1.8725     0.0432 H       
  29 H29           -1.2459     3.1378     0.0362 H       
  30 H30            1.4794     2.2860    -0.8832 H       
  31 H31           -3.5064    -1.8208    -0.3259 H       
  32 H32           -3.4823    -1.2736     2.1261 H       
  33 H33           -4.8402     0.7472    -0.5609 H       
  34 H34           -6.2723    -1.2904     0.8915 H       
  35 H35           -5.2421    -2.7296     1.0796 H       
  36 H36           -7.9621    -1.9892     2.2957 H       
  37 H37           -7.1827    -3.5664     2.5645 H       
  38 H38           -7.8717    -1.5228     4.7252 H       
  39 H39           -8.7484    -3.0397     4.4070 H       
  40 H40           -6.7173    -4.3433     4.9199 H       
  41 H41           -5.4650    -1.6224     5.5147 H       
  42 H42           -4.6860    -3.2078     5.7397 H       
  43 H43           -4.8927    -3.6612     3.3158 H       
  44 H44           -3.9903    -2.1535     3.5986 H       
  45 H45           -7.2371    -2.2371     7.0665 H       
  46 H46           -8.2769    -3.6504     6.7672 H       
  47 H47           -5.0123    -2.5069     8.0005 H       
  48 H48           -7.5097    -5.8908     7.2921 H       
  49 H49           -6.0241    -7.2782     8.6818 H       
  50 H50           -4.0294    -6.2812     9.7261 H       
  51 H51           -3.5240    -3.8954     9.3862 H       
  52 H52           -3.7202     1.1837     1.8943 H       
  53 H53           -5.3643     0.9636     1.2485 H       
  54 H54           -5.0015     0.5128     2.9318 H       
@<TRIPOS>BOND
   1    1    2 ar
   2    1    7 1
   3    1    6 ar
   4    2    3 ar
   5    2   26 1
   6    3    4 ar
   7    3   27 1
   8    4    5 ar
   9    4    8 1
  10    5    6 ar
  11    5   28 1
  12    6   29 1
  13    7   30 1
  14    8    9 1
  15    8   10 1
  16    8   31 1
  17    9   11 1
  18    9   25 1
  19    9   32 1
  20   10   33 1
  21   11   12 1
  22   11   34 1
  23   11   35 1
  24   12   13 1
  25   12   17 1
  26   13   14 1
  27   13   36 1
  28   13   37 1
  29   14   15 1
  30   14   38 1
  31   14   39 1
  32   15   16 1
  33   15   18 1
  34   15   40 1
  35   16   17 1
  36   16   41 1
  37   16   42 1
  38   17   43 1
  39   17   44 1
  40   18   19 1
  41   18   45 1
  42   18   46 1
  43   19   20 ar
  44   19   21 ar
  45   20   24 ar
  46   20   47 1
  47   21   22 ar
  48   21   48 1
  49   22   23 ar
  50   22   49 1
  51   23   24 ar
  52   23   50 1
  53   24   51 1
  54   25   52 1
  55   25   53 1
  56   25   54 1

#	End of record

