#	Name: ASD08150208
#	Creating user name:	WinNT
#	Creation time:	15. 06. 2019 21:15

#	Modifying user name:	WinNT
#	Modification time:	15. 06. 2019 21:15

#	Program:	/corina/corina34_cracker 3.40 0067  02.08.2006

@<TRIPOS>MOLECULE
ASD08150208
  54   58    0    0    0
SMALL
NO_CHARGES


@<TRIPOS>ATOM
   1 C1            -0.0280     1.3389    -0.0423 C.2     
   2 C2             0.0272    -0.1671    -0.0376 C.3     
   3 O3             0.9994     1.9833    -0.0471 O.2     
   4 N4            -1.2191     1.9695    -0.0467 N.am    
   5 O5             1.3910    -0.5938    -0.0399 O.3     
   6 C6             1.6183    -1.9341    -0.0362 C.ar    
   7 C7             2.9239    -2.4211    -0.0381 C.ar    
   8 C8             3.1495    -3.7896    -0.0344 C.ar    
   9 C9             2.0807    -4.6659    -0.0287 C.ar    
  10 C10            0.7855    -4.1821    -0.0268 C.ar    
  11 C11            0.5526    -2.8192    -0.0248 C.ar    
  12 N12            5.5237    -0.2828    -1.3165 N.2     
  13 C13            4.5235    -1.1062    -1.2286 C.2     
  14 N14            4.0063    -1.5304    -0.0443 N.am    
  15 C15            4.5272    -1.0997     1.1283 C.2     
  16 C16            5.6609    -0.1662     1.0631 C.ar    
  17 C17            6.2691     0.3357     2.2121 C.ar    
  18 C18            7.3289     1.2077     2.0934 C.ar    
  19 C19            7.7936     1.5884     0.8410 C.ar    
  20 C20            7.2066     1.1045    -0.3063 C.ar    
  21 C21            6.1309     0.2189    -0.2122 C.ar    
  22 O22            4.0742    -1.4707     2.1956 O.2     
  23 C23            5.7707    -0.0720     3.5746 C.3     
  24 C24            3.9043    -1.6180    -2.5036 C.3     
  25 N25            5.0884     0.2999    -5.3059 N.2     
  26 C26            4.2391     0.0733    -4.3462 C.2     
  27 N27            4.6063    -1.0416    -3.6531 N.pl3   
  28 C28            5.7540    -1.5247    -4.2290 C.ar    
  29 N29            6.5571    -2.5578    -3.9975 N.ar    
  30 C30            7.6179    -2.7647    -4.7493 C.ar    
  31 N31            7.9384    -1.9728    -5.7561 N.ar    
  32 C32            7.1950    -0.9147    -6.0633 C.ar    
  33 C33            6.0518    -0.6524    -5.2898 C.ar    
  34 N34            7.5393    -0.0903    -7.1202 N.pl3   
  35 H35           -0.4706    -0.5462     0.8549 H       
  36 H36           -0.4754    -0.5519    -0.9250 H       
  37 H37           -2.0408     1.4541    -0.0469 H       
  38 H38           -1.2546     2.9389    -0.0497 H       
  39 H39            4.1601    -4.1705    -0.0362 H       
  40 H40            2.2577    -5.7313    -0.0262 H       
  41 H41           -0.0465    -4.8706    -0.0224 H       
  42 H42           -0.4603    -2.4446    -0.0184 H       
  43 H43            7.8024     1.5989     2.9817 H       
  44 H44            8.6256     2.2729     0.7664 H       
  45 H45            7.5767     1.4077    -1.2745 H       
  46 H46            6.2184    -1.0254     3.8549 H       
  47 H47            6.0475     0.6881     4.3052 H       
  48 H48            4.6857    -0.1735     3.5492 H       
  49 H49            3.9849    -2.7045    -2.5361 H       
  50 H50            2.8534    -1.3305    -2.5381 H       
  51 H51            3.3716     0.6793    -4.1305 H       
  52 H52            8.2498    -3.6137    -4.5342 H       
  53 H53            8.3312    -0.2817    -7.6466 H       
  54 H54            6.9887     0.6790    -7.3345 H       
@<TRIPOS>BOND
   1    1    2 1
   2    1    3 2
   3    1    4 am
   4    2    5 1
   5    2   35 1
   6    2   36 1
   7    4   37 1
   8    4   38 1
   9    5    6 1
  10    6    7 ar
  11    6   11 ar
  12    7    8 ar
  13    7   14 1
  14    8    9 ar
  15    8   39 1
  16    9   10 ar
  17    9   40 1
  18   10   11 ar
  19   10   41 1
  20   11   42 1
  21   12   13 2
  22   12   21 1
  23   13   14 1
  24   13   24 1
  25   14   15 am
  26   15   16 1
  27   15   22 2
  28   16   17 ar
  29   16   21 ar
  30   17   18 ar
  31   17   23 1
  32   18   19 ar
  33   18   43 1
  34   19   20 ar
  35   19   44 1
  36   20   21 ar
  37   20   45 1
  38   23   46 1
  39   23   47 1
  40   23   48 1
  41   24   27 1
  42   24   49 1
  43   24   50 1
  44   25   26 2
  45   25   33 1
  46   26   27 1
  47   26   51 1
  48   27   28 1
  49   28   29 ar
  50   28   33 ar
  51   29   30 ar
  52   30   31 ar
  53   30   52 1
  54   31   32 ar
  55   32   33 ar
  56   32   34 1
  57   34   53 1
  58   34   54 1

#	End of record

