#	Name: ASD01918545
#	Creating user name:	WinNT
#	Creation time:	15. 06. 2019 20:11

#	Modifying user name:	WinNT
#	Modification time:	15. 06. 2019 20:11

#	Program:	/corina/corina34_cracker 3.40 0067  02.08.2006

@<TRIPOS>MOLECULE
ASD01918545
  41   43    0    0    0
SMALL
NO_CHARGES


@<TRIPOS>ATOM
   1 C1            -0.0187     1.5258     0.0104 C.3     
   2 C2             0.0021    -0.0041     0.0020 C.3     
   3 C3             0.7182    -0.4975    -1.2568 C.3     
   4 C4             0.7382    -1.9693    -1.2649 C.1     
   5 C5             0.7541    -3.1432    -1.2713 C.1     
   6 C6             0.7735    -4.5750    -1.2792 C.ar    
   7 C7             0.1874    -5.2980    -0.2400 C.ar    
   8 N8             0.2051    -6.6150    -0.2471 N.ar    
   9 C9             0.7696    -7.2988    -1.2236 C.ar    
  10 C10            1.3717    -6.6558    -2.2902 C.ar    
  11 C11            1.3757    -5.2727    -2.3325 C.ar    
  12 C12            2.0121    -7.4533    -3.3970 C.3     
  13 H13            2.7318    -6.8416    -3.9411 H       
  14 N14            2.6614    -8.6576    -2.8570 N.am    
  15 C15            2.0814    -9.7402    -3.3930 C.2     
  16 O16            2.4198   -10.8757    -3.1234 O.2     
  17 O17            1.0955    -9.4567    -4.2515 O.3     
  18 C18            0.9400    -8.0082    -4.3545 C.3     
  19 H19           -0.0556    -7.7059    -4.0299 H       
  20 C20            1.2005    -7.5451    -5.7648 C.ar    
  21 C21            2.0722    -8.2499    -6.5734 C.ar    
  22 C22            2.3122    -7.8262    -7.8675 C.ar    
  23 C23            1.6808    -6.6975    -8.3538 C.ar    
  24 C24            0.8069    -5.9908    -7.5447 C.ar    
  25 F25            0.1889    -4.8871    -8.0191 F       
  26 C26            0.5633    -6.4190    -6.2509 C.ar    
  27 H27            1.0039     1.9031     0.0027 H       
  28 H28           -0.5459     1.8868    -0.8726 H       
  29 H29           -0.5289     1.8773     0.9072 H       
  30 H30            0.5293    -0.3651     0.8851 H       
  31 H31           -1.0205    -0.3814     0.0098 H       
  32 H32            0.1910    -0.1364    -2.1398 H       
  33 H33            1.7408    -0.1202    -1.2645 H       
  34 H34           -0.2846    -4.7733     0.5775 H       
  35 H35            0.7619    -8.3782    -1.1897 H       
  36 H36            1.8353    -4.7451    -3.1552 H       
  37 H37            3.3906    -8.6667    -2.2174 H       
  38 H38            2.5665    -9.1321    -6.1941 H       
  39 H39            2.9938    -8.3775    -8.4983 H       
  40 H40            1.8689    -6.3663    -9.3644 H       
  41 H41           -0.1212    -5.8710    -5.6204 H       
@<TRIPOS>BOND
   1    1    2 1
   2    1   27 1
   3    1   28 1
   4    1   29 1
   5    2    3 1
   6    2   30 1
   7    2   31 1
   8    3    4 1
   9    3   32 1
  10    3   33 1
  11    4    5 3
  12    5    6 1
  13    6   11 ar
  14    6    7 ar
  15    7    8 ar
  16    7   34 1
  17    8    9 ar
  18    9   10 ar
  19    9   35 1
  20   10   11 ar
  21   10   12 1
  22   11   36 1
  23   12   13 1
  24   12   18 1
  25   12   14 1
  26   14   15 am
  27   14   37 1
  28   15   16 2
  29   15   17 1
  30   17   18 1
  31   18   19 1
  32   18   20 1
  33   20   26 ar
  34   20   21 ar
  35   21   22 ar
  36   21   38 1
  37   22   23 ar
  38   22   39 1
  39   23   24 ar
  40   23   40 1
  41   24   25 1
  42   24   26 ar
  43   26   41 1

#	End of record

