#	Name: ASD04590229
#	Creating user name:	WinNT
#	Creation time:	15. 06. 2019 20:50

#	Modifying user name:	WinNT
#	Modification time:	15. 06. 2019 20:50

#	Program:	/corina/corina34_cracker 3.40 0067  02.08.2006

@<TRIPOS>MOLECULE
ASD04590229
  55   57    0    0    0
SMALL
NO_CHARGES


@<TRIPOS>ATOM
   1 N1            -0.0153     1.2802     0.0091 N.pl3   
   2 N2             0.0021    -0.0041     0.0020 N.2     
   3 C3             1.2455    -0.4440    -0.0122 C.2     
   4 C4             2.0903     0.6961    -0.0142 C.2     
   5 C5             1.2523     1.7667    -0.0004 C.2     
   6 C6             1.6764    -1.8547    -0.0232 C.2     
   7 N7             0.7571    -2.8402    -0.0194 N.am    
   8 N8             3.4929     0.7146    -0.0268 N.am    
   9 O9             2.8611    -2.1284    -0.0356 O.2     
  10 C10            4.1513     1.8906    -0.0268 C.2     
  11 C11            5.6281     1.9101    -0.0401 C.ar    
  12 O12            3.5296     2.9355    -0.0160 O.2     
  13 C13            1.1850    -4.2412    -0.0303 C.3     
  14 C14            1.9146    -6.1625     1.3905 C.3     
  15 C15            1.4677    -4.6993     1.4019 C.3     
  16 C16            6.3129     3.1273    -0.0402 C.ar    
  17 C17            7.6912     3.1397    -0.0522 C.ar    
  18 C18            8.3977     1.9467    -0.0645 C.ar    
  19 C19            7.7229     0.7355    -0.0645 C.ar    
  20 C20            6.3448     0.7115    -0.0468 C.ar    
  21 C21            0.0781    -5.1080    -0.6339 C.3     
  22 C22            0.5250    -6.5712    -0.6452 C.3     
  23 C23            0.8077    -7.0293     0.7869 C.3     
  24 C24            1.2546    -8.4925     0.7756 C.3     
  25 C25            2.5259    -8.6309    -0.0644 C.3     
  26 C26            1.5373    -8.9505     2.2078 C.3     
  27 C27            0.1477    -9.3592     0.1720 C.3     
  28 F28            9.7485     1.9646    -0.0771 F       
  29 H29           -0.8184     1.8242     0.0160 H       
  30 H30            1.5405     2.8076     0.0024 H       
  31 H31           -0.1880    -2.6218    -0.0095 H       
  32 H32            3.9889    -0.1189    -0.0354 H       
  33 H33            2.0907    -4.3399    -0.6287 H       
  34 H34            2.8203    -6.2611     0.7921 H       
  35 H35            2.1160    -6.4889     2.4108 H       
  36 H36            2.2563    -4.0818     1.8319 H       
  37 H37            0.5620    -4.6007     2.0003 H       
  38 H38            5.7636     4.0571    -0.0313 H       
  39 H39            8.2218     4.0804    -0.0523 H       
  40 H40            8.2781    -0.1908    -0.0745 H       
  41 H41            5.8202    -0.2325    -0.0467 H       
  42 H42           -0.8276    -5.0094    -0.0355 H       
  43 H43           -0.1233    -4.7816    -1.6542 H       
  44 H44           -0.2636    -7.1887    -1.0752 H       
  45 H45            1.4307    -6.6698    -1.2437 H       
  46 H46           -0.0980    -6.9306     1.3854 H       
  47 H47            3.3145    -8.0134     0.3656 H       
  48 H48            2.8444    -9.6733    -0.0725 H       
  49 H49            2.3246    -8.3046    -1.0847 H       
  50 H50            0.6316    -8.8519     2.8062 H       
  51 H51            1.8557    -9.9930     2.1997 H       
  52 H52            2.3259    -8.3331     2.6378 H       
  53 H53           -0.0537    -9.0329    -0.8483 H       
  54 H54            0.4661   -10.4016     0.1639 H       
  55 H55           -0.7580    -9.2606     0.7704 H       
@<TRIPOS>BOND
   1    1    2 1
   2    1    5 1
   3    1   29 1
   4    2    3 2
   5    3    4 1
   6    3    6 1
   7    4    5 2
   8    4    8 1
   9    5   30 1
  10    6    7 am
  11    6    9 2
  12    7   13 1
  13    7   31 1
  14    8   10 am
  15    8   32 1
  16   10   11 1
  17   10   12 2
  18   11   16 ar
  19   11   20 ar
  20   13   21 1
  21   13   15 1
  22   13   33 1
  23   14   15 1
  24   14   23 1
  25   14   34 1
  26   14   35 1
  27   15   36 1
  28   15   37 1
  29   16   17 ar
  30   16   38 1
  31   17   18 ar
  32   17   39 1
  33   18   19 ar
  34   18   28 1
  35   19   20 ar
  36   19   40 1
  37   20   41 1
  38   21   22 1
  39   21   42 1
  40   21   43 1
  41   22   23 1
  42   22   44 1
  43   22   45 1
  44   23   24 1
  45   23   46 1
  46   24   25 1
  47   24   26 1
  48   24   27 1
  49   25   47 1
  50   25   48 1
  51   25   49 1
  52   26   50 1
  53   26   51 1
  54   26   52 1
  55   27   53 1
  56   27   54 1
  57   27   55 1

#	End of record

