#	Name: ASD04882269
#	Creating user name:	WinNT
#	Creation time:	15. 06. 2019 20:54

#	Modifying user name:	WinNT
#	Modification time:	15. 06. 2019 20:54

#	Program:	/corina/corina34_cracker 3.40 0067  02.08.2006

@<TRIPOS>MOLECULE
ASD04882269
  77   81    0    0    0
SMALL
NO_CHARGES


@<TRIPOS>ATOM
   1 N1            -0.0312     1.7693    -0.4628 N.am    
   2 C2             0.1109     0.3801    -0.3512 C.ar    
   3 C3            -1.0043    -0.4174    -0.0792 C.ar    
   4 C4            -0.8648    -1.7962     0.0313 C.ar    
   5 C5             0.3720    -2.3812    -0.1262 C.ar    
   6 C6             1.4913    -1.5895    -0.3983 C.ar    
   7 C7             1.3529    -0.2037    -0.5156 C.ar    
   8 N8            -2.2565     0.1699     0.0816 N.3     
   9 C9            -2.3011     0.9898     1.3004 C.3     
  10 C10           -3.3173    -0.8470     0.0954 C.3     
  11 C11           -4.6802    -0.1574     0.1937 C.3     
  12 N12           -4.7247     0.6624     1.4125 N.3     
  13 C13           -3.6639     1.6794     1.3987 C.3     
  14 C14            2.8160    -2.2165    -0.5669 C.2     
  15 O15            3.7893    -1.5270    -0.8036 O.2     
  16 C16           -6.0458     1.2820     1.5822 C.3     
  17 C17            0.9734     2.5823    -0.0804 C.2     
  18 C18            0.8711     4.0282    -0.3016 C.2     
  19 O19            1.9656     2.1163     0.4486 O.2     
  20 O20           -0.1680     4.6711    -0.8735 O.3     
  21 C21            1.8083     4.9606     0.0406 C.2     
  22 C22            1.2988     6.2080    -0.3529 C.2     
  23 C23            0.0870     5.9856    -0.9078 C.2     
  24 N24            2.9476    -3.5534    -0.4587 N.am    
  25 C25            4.2631    -4.1760    -0.6262 C.3     
  26 C26            4.1358    -5.6911    -0.4555 C.3     
  27 C27            5.5096    -6.3413    -0.6304 C.3     
  28 N28            5.3877    -7.7920    -0.4670 N.am    
  29 C29            5.1360    -8.6499    -1.4708 C.2     
  30 C30            5.5310    -8.4961     0.8127 C.3     
  31 C31            4.9053    -9.8906     0.5882 C.3     
  32 C32            5.0672   -10.0651    -0.9407 C.3     
  33 O33            4.9852    -8.3350    -2.6322 O.2     
  34 C34           -6.1042     1.9833     2.9148 C.ar    
  35 C35           -6.2107     1.2466     4.0793 C.ar    
  36 C36           -6.0457     3.3635     2.9728 C.ar    
  37 C37           -6.0993     4.0067     4.1949 C.ar    
  38 C38           -6.2119     3.2700     5.3594 C.ar    
  39 C39           -6.2648     1.8901     5.3018 C.ar    
  40 C40           -6.2683    -0.2580     4.0165 C.3     
  41 H41           -0.8510     2.1459    -0.8191 H       
  42 H42           -1.7283    -2.4099     0.2415 H       
  43 H43            0.4771    -3.4525    -0.0390 H       
  44 H44            2.2160     0.4106    -0.7258 H       
  45 H45           -2.1519     0.3532     2.1726 H       
  46 H46           -1.5143     1.7431     1.2609 H       
  47 H47           -3.2715    -1.4328    -0.8227 H       
  48 H48           -3.1797    -1.5045     0.9538 H       
  49 H49           -4.8293     0.4792    -0.6785 H       
  50 H50           -5.4669    -0.9108     0.2332 H       
  51 H51           -3.7097     2.2651     2.3168 H       
  52 H52           -3.8015     2.3368     0.5402 H       
  53 H53           -6.2134     2.0047     0.7836 H       
  54 H54           -6.8161     0.5118     1.5428 H       
  55 H55            2.7574     4.7744     0.5211 H       
  56 H56            1.7832     7.1658    -0.2322 H       
  57 H57           -0.5679     6.7429    -1.3127 H       
  58 H58            2.1712    -4.1034    -0.2699 H       
  59 H59            4.6462    -3.9535    -1.6221 H       
  60 H60            4.9495    -3.7823     0.1235 H       
  61 H61            3.7527    -5.9136     0.5404 H       
  62 H62            3.4494    -6.0848    -1.2051 H       
  63 H63            5.8928    -6.1188    -1.6263 H       
  64 H64            6.1960    -5.9476     0.1192 H       
  65 H65            6.5847    -8.5931     1.0740 H       
  66 H66            4.9943    -7.9639     1.5982 H       
  67 H67            5.4598   -10.6584     1.1278 H       
  68 H68            3.8537    -9.8970     0.8748 H       
  69 H69            4.2066   -10.5876    -1.3583 H       
  70 H70            5.9880   -10.6024    -1.1680 H       
  71 H71           -5.9577     3.9389     2.0631 H       
  72 H72           -6.0528     5.0847     4.2403 H       
  73 H73           -6.2535     3.7726     6.3145 H       
  74 H74           -6.3528     1.3146     6.2115 H       
  75 H75           -5.2556    -0.6589     3.9743 H       
  76 H76           -6.7734    -0.6396     4.9038 H       
  77 H77           -6.8175    -0.5637     3.1260 H       
@<TRIPOS>BOND
   1    1    2 1
   2    1   17 am
   3    1   41 1
   4    2    3 ar
   5    2    7 ar
   6    3    4 ar
   7    3    8 1
   8    4    5 ar
   9    4   42 1
  10    5    6 ar
  11    5   43 1
  12    6    7 ar
  13    6   14 1
  14    7   44 1
  15    8    9 1
  16    8   10 1
  17    9   13 1
  18    9   45 1
  19    9   46 1
  20   10   11 1
  21   10   47 1
  22   10   48 1
  23   11   12 1
  24   11   49 1
  25   11   50 1
  26   12   13 1
  27   12   16 1
  28   13   51 1
  29   13   52 1
  30   14   15 2
  31   14   24 am
  32   16   34 1
  33   16   53 1
  34   16   54 1
  35   17   19 2
  36   17   18 1
  37   18   20 1
  38   18   21 2
  39   20   23 1
  40   21   22 1
  41   21   55 1
  42   22   23 2
  43   22   56 1
  44   23   57 1
  45   24   25 1
  46   24   58 1
  47   25   26 1
  48   25   59 1
  49   25   60 1
  50   26   27 1
  51   26   61 1
  52   26   62 1
  53   27   28 1
  54   27   63 1
  55   27   64 1
  56   28   29 am
  57   28   30 1
  58   29   33 2
  59   29   32 1
  60   30   31 1
  61   30   65 1
  62   30   66 1
  63   31   32 1
  64   31   67 1
  65   31   68 1
  66   32   69 1
  67   32   70 1
  68   34   35 ar
  69   34   36 ar
  70   35   40 1
  71   35   39 ar
  72   36   37 ar
  73   36   71 1
  74   37   38 ar
  75   37   72 1
  76   38   39 ar
  77   38   73 1
  78   39   74 1
  79   40   75 1
  80   40   76 1
  81   40   77 1

#	End of record

