#	Name: ASD01209184
#	Creating user name:	WinNT
#	Creation time:	15. 06. 2019 19:11

#	Modifying user name:	WinNT
#	Modification time:	15. 06. 2019 19:11

#	Program:	/corina/corina34_cracker 3.40 0067  02.08.2006

@<TRIPOS>MOLECULE
ASD01209184
  70   72    0    0    0
SMALL
NO_CHARGES


@<TRIPOS>ATOM
   1 O1             0.7724    -1.2134    -1.7723 O.3     
   2 O2             2.8585    -0.7066    -0.2546 O.3     
   3 C3             0.3123     6.0774    -9.6494 C.ar    
   4 C4             1.6485     6.4471    -9.6938 C.ar    
   5 C5             2.5084     6.0801    -8.6685 C.ar    
   6 C6             2.0353     5.3435    -7.5955 C.ar    
   7 C7             0.6917     4.9694    -7.5469 C.ar    
   8 C8            -0.1706     5.3450    -8.5774 C.ar    
   9 O9             3.8169     6.4442    -8.7173 O.3     
  10 C10            0.1824     4.1821    -6.4042 C.2     
  11 N11            1.0159     3.8245    -5.4073 N.am    
  12 O12           -0.9883     3.8571    -6.3636 O.2     
  13 C13            0.5373     3.0848    -4.3335 C.2     
  14 P14            1.9944    -0.1975    -1.5141 P.3     
  15 O15            2.8567    -0.1474    -2.7160 O.2     
  16 C16            1.3378     1.4674    -1.1675 C.3     
  17 N17            1.2518     2.6905    -3.3261 N.2     
  18 S18           -1.0813     2.5679    -4.1443 S.3     
  19 C19           -0.6663     1.7922    -2.6179 C.2     
  20 C20            0.6331     1.9943    -2.3910 C.2     
  21 C21            0.9611    -2.5722    -2.1722 C.3     
  22 C22           -0.4008    -3.2517    -2.3287 C.3     
  23 C23            3.5916    -1.9332    -0.2584 C.3     
  24 C24            4.2957    -2.1107     1.0883 C.3     
  25 O25           -0.5256     6.4391   -10.6565 O.3     
  26 C26           -1.9108     6.1297   -10.4907 C.3     
  27 C27           -2.7527     7.0944   -11.3282 C.3     
  28 C28           -2.1713     4.6940   -10.9510 C.3     
  29 C29            4.2372     7.2032    -9.8528 C.3     
  30 C30            5.7298     7.5174    -9.7322 C.3     
  31 C31            6.2001     8.2103   -10.9851 C.ar    
  32 C32            6.7741     7.4768   -12.0066 C.ar    
  33 C33            6.0524     9.5785   -11.1152 C.ar    
  34 C34            6.4839    10.2141   -12.2644 C.ar    
  35 C35            7.0634     9.4815   -13.2834 C.ar    
  36 C36            7.2055     8.1124   -13.1558 C.ar    
  37 O37            5.9476     8.3697    -8.6061 O.3     
  38 H38            2.0207     7.0220   -10.5289 H       
  39 H39            2.7054     5.0579    -6.7981 H       
  40 H40           -1.2111     5.0576    -8.5437 H       
  41 H41            1.9501     4.0838    -5.4397 H       
  42 H42            0.6336     1.4146    -0.3371 H       
  43 H43            2.1590     2.1346    -0.9056 H       
  44 H44           -1.3457     1.2510    -1.9761 H       
  45 H45            1.4927    -2.6006    -3.1234 H       
  46 H46            1.5437    -3.0964    -1.4147 H       
  47 H47           -0.2569    -4.2882    -2.6337 H       
  48 H48           -0.9324    -3.2233    -1.3775 H       
  49 H49           -0.9835    -2.7275    -3.0863 H       
  50 H50            2.9069    -2.7652    -0.4229 H       
  51 H51            4.3339    -1.9103    -1.0563 H       
  52 H52            3.5535    -2.1336     1.8861 H       
  53 H53            4.8549    -3.0463     1.0853 H       
  54 H54            4.9804    -1.2787     1.2527 H       
  55 H55           -2.1820     6.2291    -9.4397 H       
  56 H56           -2.4815     6.9950   -12.3792 H       
  57 H57           -3.8093     6.8584   -11.2017 H       
  58 H58           -2.5671     8.1172   -11.0003 H       
  59 H59           -1.9001     4.5945   -12.0020 H       
  60 H60           -1.5715     4.0067   -10.3544 H       
  61 H61           -3.2279     4.4580   -10.8245 H       
  62 H62            4.0594     6.6271   -10.7609 H       
  63 H63            3.6723     8.1343    -9.8968 H       
  64 H64            6.2867     6.5899    -9.5990 H       
  65 H65            6.8857     6.4072   -11.9067 H       
  66 H66            5.5997    10.1509   -10.3190 H       
  67 H67            6.3679    11.2830   -12.3663 H       
  68 H68            7.4001     9.9780   -14.1814 H       
  69 H69            7.6583     7.5400   -13.9519 H       
  70 H70            5.4812     9.2153    -8.6567 H       
@<TRIPOS>BOND
   1    1   21 1
   2    1   14 1
   3    2   23 1
   4    2   14 1
   5    3    4 ar
   6    3   25 1
   7    3    8 ar
   8    4    5 ar
   9    4   38 1
  10    5    6 ar
  11    5    9 1
  12    6    7 ar
  13    6   39 1
  14    7    8 ar
  15    7   10 1
  16    8   40 1
  17    9   29 1
  18   10   11 am
  19   10   12 2
  20   11   13 1
  21   11   41 1
  22   13   17 2
  23   13   18 1
  24   14   15 2
  25   14   16 1
  26   16   20 1
  27   16   42 1
  28   16   43 1
  29   17   20 1
  30   18   19 1
  31   19   20 2
  32   19   44 1
  33   21   22 1
  34   21   45 1
  35   21   46 1
  36   22   47 1
  37   22   48 1
  38   22   49 1
  39   23   24 1
  40   23   50 1
  41   23   51 1
  42   24   52 1
  43   24   53 1
  44   24   54 1
  45   25   26 1
  46   26   27 1
  47   26   28 1
  48   26   55 1
  49   27   56 1
  50   27   57 1
  51   27   58 1
  52   28   59 1
  53   28   60 1
  54   28   61 1
  55   29   30 1
  56   29   62 1
  57   29   63 1
  58   30   31 1
  59   30   37 1
  60   30   64 1
  61   31   32 ar
  62   31   33 ar
  63   32   36 ar
  64   32   65 1
  65   33   34 ar
  66   33   66 1
  67   34   35 ar
  68   34   67 1
  69   35   36 ar
  70   35   68 1
  71   36   69 1
  72   37   70 1

#	End of record

