#	Name: ASD01811135
#	Creating user name:	WinNT
#	Creation time:	15. 06. 2019 19:26

#	Modifying user name:	WinNT
#	Modification time:	15. 06. 2019 19:26

#	Program:	/corina/corina34_cracker 3.40 0067  02.08.2006

@<TRIPOS>MOLECULE
ASD01811135
  37   40    0    0    0
SMALL
NO_CHARGES


@<TRIPOS>ATOM
   1 C1            -0.0169     1.3972     0.0097 C.2     
   2 C2             0.0021    -0.0041     0.0020 C.2     
   3 C3             1.1986    -0.6593    -0.0129 C.2     
   4 C4             2.3918     0.0821    -0.0204 C.2     
   5 N5             2.3438     1.4497    -0.0122 N.am    
   6 C6             1.1421     2.0936     0.0024 C.2     
   7 C7             3.6227    -0.5889    -0.0356 C.2     
   8 C8             4.7877     0.1218    -0.0430 C.2     
   9 C9             4.7345     1.5280    -0.0351 C.2     
  10 C10            3.4812     2.1736    -0.0189 C.2     
  11 O11            3.4258     3.3917    -0.0123 O.2     
  12 C12            5.9703     2.3140    -0.0422 C.2     
  13 O13            7.0487     1.7516    -0.0551 O.2     
  14 O14            5.9124     3.6618    -0.0346 O.3     
  15 C15            3.6593    -2.0954    -0.0434 C.3     
  16 N16            3.7782    -2.5738    -1.4230 N.pl3   
  17 C17            4.9488    -2.7231    -2.1393 C.ar    
  18 C18            4.5710    -3.2052    -3.4038 C.ar    
  19 N19            3.2183    -3.3227    -3.3942 N.2     
  20 C20            2.7559    -2.9590    -2.2337 C.2     
  21 C21            6.2901    -2.5033    -1.8564 C.ar    
  22 C22            7.2422    -2.7602    -2.8197 C.ar    
  23 C23            6.8684    -3.2359    -4.0687 C.ar    
  24 C24            5.5535    -3.4587    -4.3646 C.ar    
  25 H25           -0.9605     1.9226     0.0170 H       
  26 H26           -0.9233    -0.5609     0.0082 H       
  27 H27            1.2282    -1.7389    -0.0187 H       
  28 H28            1.1156     3.1733     0.0091 H       
  29 H29            5.7392    -0.3889    -0.0544 H       
  30 H30            6.7544     4.1373    -0.0398 H       
  31 H31            4.5154    -2.4410     0.5360 H       
  32 H32            2.7413    -2.4834     0.3979 H       
  33 H33            1.7119    -2.9557    -1.9570 H       
  34 H34            6.5863    -2.1325    -0.8862 H       
  35 H35            8.2860    -2.5897    -2.6011 H       
  36 H36            7.6248    -3.4321    -4.8142 H       
  37 H37            5.2738    -3.8294    -5.3396 H       
@<TRIPOS>BOND
   1    1    2 1
   2    1    6 2
   3    1   25 1
   4    2    3 2
   5    2   26 1
   6    3    4 1
   7    3   27 1
   8    4    5 1
   9    4    7 2
  10    5    6 1
  11    5   10 am
  12    6   28 1
  13    7    8 1
  14    7   15 1
  15    8    9 2
  16    8   29 1
  17    9   10 1
  18    9   12 1
  19   10   11 2
  20   12   13 2
  21   12   14 1
  22   14   30 1
  23   15   16 1
  24   15   31 1
  25   15   32 1
  26   16   17 1
  27   16   20 1
  28   17   18 ar
  29   17   21 ar
  30   18   19 1
  31   18   24 ar
  32   19   20 2
  33   20   33 1
  34   21   22 ar
  35   21   34 1
  36   22   23 ar
  37   22   35 1
  38   23   24 ar
  39   23   36 1
  40   24   37 1

#	End of record

