#	Name: ASD01680049
#	Creating user name:	WinNT
#	Creation time:	15. 06. 2019 19:22

#	Modifying user name:	WinNT
#	Modification time:	15. 06. 2019 19:22

#	Program:	/corina/corina34_cracker 3.40 0067  02.08.2006

@<TRIPOS>MOLECULE
ASD01680049
  85   88    0    0    0
SMALL
NO_CHARGES


@<TRIPOS>ATOM
   1 N1            -0.4973    -1.5695    -2.3231 N.am    
   2 C2            -0.2137    -2.9365    -2.7966 C.3     
   3 C3             1.0718    -3.3587    -2.0423 C.3     
   4 C4             1.8656    -2.0260    -2.0095 C.3     
   5 C5             0.7556    -0.9664    -1.8456 C.3     
   6 C6            -1.7043    -0.9698    -2.3318 C.2     
   7 O7            -2.6547    -1.5247    -2.8469 O.2     
   8 O8            -1.8569     0.2442    -1.7699 O.3     
   9 C9            -1.3705    -3.8733    -2.4429 C.3     
  10 N10           -1.7123    -3.7144    -1.0272 N.pl3   
  11 C11           -2.7990    -4.3983    -0.4933 C.ar    
  12 C12           -3.5573    -5.2318    -1.3093 C.ar    
  13 C13           -4.6352    -5.9065    -0.7656 C.ar    
  14 C14           -4.9200    -5.7244     0.5823 C.ar    
  15 C15           -4.1244    -4.8814     1.3335 C.ar    
  16 N16           -3.0990    -4.2546     0.7881 N.ar    
  17 Cl17          -6.2620    -6.5472     1.3142 Cl      
  18 O18            2.7601    -1.9976    -0.8954 O.3     
  19 C19            3.9417    -1.2254    -1.1182 C.3     
  20 C20            4.8075    -1.2649     0.1146 C.2     
  21 N21            5.9813    -0.6028     0.1352 N.am    
  22 O22            4.4481    -1.8925     1.0882 O.2     
  23 C23            6.8229    -0.6412     1.3337 C.3     
  24 C24            8.0880     0.1856     1.0951 C.3     
  25 N25            7.7151     1.5421     0.6864 N.am    
  26 S26            8.6459     2.3615    -0.4111 S.o2    
  27 O27            8.0095     3.6147    -0.6205 O.2     
  28 O28            9.9906     2.2370     0.0310 O.2     
  29 C29            8.5413     1.4890    -1.9383 C.ar    
  30 C30            9.4340     0.4705    -2.2150 C.ar    
  31 C31            9.3520    -0.2140    -3.4131 C.ar    
  32 C32            8.3770     0.1198    -4.3345 C.ar    
  33 C33            7.4837     1.1377    -4.0574 C.ar    
  34 C34            7.5630     1.8193    -2.8574 C.ar    
  35 C35            6.5859     2.9255    -2.5532 C.3     
  36 C36            8.2882    -0.6258    -5.6411 C.3     
  37 C37           10.4970     0.1067    -1.2106 C.3     
  38 C38            8.8946     0.2479     2.3665 C.2     
  39 O39            9.1334     1.3158     2.8787 O.2     
  40 O40            9.3477    -0.8830     2.9300 O.3     
  41 C41           -3.1848     0.8298    -1.8163 C.3     
  42 C42           -3.1629     2.1782    -1.1437 C.ar    
  43 C43           -2.8880     3.3143    -1.8817 C.ar    
  44 C44           -2.8679     4.5512    -1.2647 C.ar    
  45 C45           -3.1231     4.6520     0.0901 C.ar    
  46 C46           -3.3988     3.5160     0.8279 C.ar    
  47 C47           -3.4232     2.2796     0.2101 C.ar    
  48 H48           -0.0396    -2.9368    -3.8726 H       
  49 H49            0.8387    -3.6995    -1.0335 H       
  50 H50            1.6159    -4.1241    -2.5956 H       
  51 H51            2.4067    -1.8763    -2.9438 H       
  52 H52            0.9935    -0.0852    -2.4414 H       
  53 H53            0.6580    -0.6912    -0.7955 H       
  54 H54           -2.2377    -3.6272    -3.0558 H       
  55 H55           -1.0733    -4.9049    -2.6314 H       
  56 H56           -1.1805    -3.1322    -0.4623 H       
  57 H57           -3.3078    -5.3499    -2.3534 H       
  58 H58           -5.2421    -6.5599    -1.3749 H       
  59 H59           -4.3420    -4.7363     2.3814 H       
  60 H60            4.4926    -1.6398    -1.9626 H       
  61 H61            3.6658    -0.1936    -1.3356 H       
  62 H62            6.2687    -0.1009    -0.6435 H       
  63 H63            6.2720    -0.2268     2.1780 H       
  64 H64            7.0988    -1.6730     1.5510 H       
  65 H65            8.6834    -0.2798     0.3096 H       
  66 H66            6.9229     1.9602     1.0586 H       
  67 H67           10.0500    -1.0092    -3.6296 H       
  68 H68            6.7222     1.3987    -4.7774 H       
  69 H69            7.0456     3.8881    -2.7773 H       
  70 H70            5.6920     2.7989    -3.1638 H       
  71 H71            6.3135     2.8898    -1.4984 H       
  72 H72            7.6272    -1.4846    -5.5252 H       
  73 H73            7.8921     0.0363    -6.4110 H       
  74 H74            9.2812    -0.9683    -5.9322 H       
  75 H75           10.0645    -0.5290    -0.4380 H       
  76 H76           11.3030    -0.4286    -1.7124 H       
  77 H77           10.8923     1.0145    -0.7549 H       
  78 H78            9.8605    -0.7926     3.7449 H       
  79 H79           -3.4942     0.9468    -2.8549 H       
  80 H80           -3.8880     0.1771    -1.2990 H       
  81 H81           -2.6886     3.2355    -2.9402 H       
  82 H82           -2.6524     5.4387    -1.8412 H       
  83 H83           -3.1066     5.6182     0.5723 H       
  84 H84           -3.5979     3.5947     1.8865 H       
  85 H85           -3.6423     1.3925     0.7858 H       
@<TRIPOS>BOND
   1    1    2 1
   2    1    5 1
   3    1    6 am
   4    2    3 1
   5    2    9 1
   6    2   48 1
   7    3    4 1
   8    3   49 1
   9    3   50 1
  10    4    5 1
  11    4   18 1
  12    4   51 1
  13    5   52 1
  14    5   53 1
  15    6    7 2
  16    6    8 1
  17    8   41 1
  18    9   10 1
  19    9   54 1
  20    9   55 1
  21   10   11 1
  22   10   56 1
  23   11   12 ar
  24   11   16 ar
  25   12   13 ar
  26   12   57 1
  27   13   14 ar
  28   13   58 1
  29   14   15 ar
  30   14   17 1
  31   15   16 ar
  32   15   59 1
  33   18   19 1
  34   19   20 1
  35   19   60 1
  36   19   61 1
  37   20   21 am
  38   20   22 2
  39   21   23 1
  40   21   62 1
  41   23   24 1
  42   23   63 1
  43   23   64 1
  44   24   25 1
  45   24   38 1
  46   24   65 1
  47   25   26 am
  48   25   66 1
  49   26   27 2
  50   26   28 2
  51   26   29 1
  52   29   30 ar
  53   29   34 ar
  54   30   31 ar
  55   30   37 1
  56   31   32 ar
  57   31   67 1
  58   32   33 ar
  59   32   36 1
  60   33   34 ar
  61   33   68 1
  62   34   35 1
  63   35   69 1
  64   35   70 1
  65   35   71 1
  66   36   72 1
  67   36   73 1
  68   36   74 1
  69   37   75 1
  70   37   76 1
  71   37   77 1
  72   38   39 2
  73   38   40 1
  74   40   78 1
  75   41   42 1
  76   41   79 1
  77   41   80 1
  78   42   43 ar
  79   42   47 ar
  80   43   44 ar
  81   43   81 1
  82   44   45 ar
  83   44   82 1
  84   45   46 ar
  85   45   83 1
  86   46   47 ar
  87   46   84 1
  88   47   85 1

#	End of record

