#	Name: ASD01914989
#	Creating user name:	WinNT
#	Creation time:	15. 06. 2019 20:04

#	Modifying user name:	WinNT
#	Modification time:	15. 06. 2019 20:04

#	Program:	/corina/corina34_cracker 3.40 0067  02.08.2006

@<TRIPOS>MOLECULE
ASD01914989
  21   21    0    0    0
SMALL
NO_CHARGES


@<TRIPOS>ATOM
   1 C1            -0.0179     1.4697     0.0101 C.2     
   2 C2             0.0021    -0.0041     0.0020 C.ar    
   3 C3            -1.1970    -0.7328     0.0096 C.ar    
   4 C4            -1.1300    -2.1005     0.0011 C.ar    
   5 C5             0.1140    -2.7243    -0.0146 C.ar    
   6 N6             1.2324    -2.0154    -0.0215 N.ar    
   7 C7             1.2159    -0.6973    -0.0192 C.ar    
   8 O8             1.0260     2.0915     0.0035 O.2     
   9 O9            -1.1939     2.1276     0.0193 O.3     
  10 O10            0.1817    -4.0774    -0.0225 O.3     
  11 C11            1.4857    -4.6616    -0.0386 C.3     
  12 Cl12           2.7116     0.1837    -0.0355 Cl      
  13 C13           -1.1376     3.5784     0.0269 C.3     
  14 H14           -2.1509    -0.2266     0.0221 H       
  15 H15           -2.0348    -2.6901     0.0069 H       
  16 H16            2.0185    -4.3365    -0.9322 H       
  17 H17            2.0362    -4.3460     0.8476 H       
  18 H18            1.3971    -5.7480    -0.0436 H       
  19 H19           -0.6059     3.9167     0.9162 H       
  20 H20           -0.6143     3.9264    -0.8637 H       
  21 H21           -2.1504     3.9813     0.0339 H       
@<TRIPOS>BOND
   1    1    2 1
   2    1    8 2
   3    1    9 1
   4    2    3 ar
   5    2    7 ar
   6    3    4 ar
   7    3   14 1
   8    4    5 ar
   9    4   15 1
  10    5    6 ar
  11    5   10 1
  12    6    7 ar
  13    7   12 1
  14    9   13 1
  15   10   11 1
  16   11   16 1
  17   11   17 1
  18   11   18 1
  19   13   19 1
  20   13   20 1
  21   13   21 1

#	End of record

