#	Name: ASD01882458
#	Creating user name:	WinNT
#	Creation time:	15. 06. 2019 19:44

#	Modifying user name:	WinNT
#	Modification time:	15. 06. 2019 19:44

#	Program:	/corina/corina34_cracker 3.40 0067  02.08.2006

@<TRIPOS>MOLECULE
ASD01882458
  60   65    0    0    0
SMALL
NO_CHARGES


@<TRIPOS>ATOM
   1 C1            -0.4012     1.0366     0.1139 C.3     
   2 O2            -0.0249    -0.3474     0.0421 O.3     
   3 C3             1.2280    -0.3537    -0.6680 C.3     
   4 C4             1.8747     0.9818    -0.3826 C.ar    
   5 C5             3.1698     1.4398    -0.5098 C.ar    
   6 C6             3.4783     2.7426    -0.1632 C.ar    
   7 C7             2.4897     3.5853     0.3101 C.ar    
   8 C8             1.1914     3.1265     0.4376 C.ar    
   9 C9             0.8829     1.8268     0.0923 C.ar    
  10 N10           -3.2767     0.9250     0.2296 N.3     
  11 C11           -2.5803     0.6165    -1.0260 C.3     
  12 C12           -1.2686     1.4036    -1.0891 C.3     
  13 C13           -1.1641     1.3031     1.4105 C.3     
  14 C14           -2.4793     0.5196     1.3942 C.3     
  15 C15            2.1172    -1.4896    -0.1580 C.3     
  16 C16            0.9817    -0.5098    -2.1700 C.3     
  17 C17           -4.6072     0.3030     0.2602 C.3     
  18 C18           -6.5583     1.5637     3.2421 C.2     
  19 C19           -6.0241     1.4639     1.9419 C.2     
  20 C20           -5.1896     0.4305     1.6442 C.2     
  21 C21           -4.8736    -0.5173     2.6327 C.2     
  22 C22           -5.3930    -0.4084     3.8734 C.2     
  23 N23           -6.2311     0.6216     4.1860 N.pl3   
  24 N24           -7.5611     2.0760     5.0514 N.2     
  25 N25           -7.3701     2.4283     3.8286 N.2     
  26 C26           -6.8908     0.9850     5.3190 C.2     
  27 C27           -6.8547     0.2631     6.6414 C.3     
  28 C28           -5.7098     0.8156     7.4929 C.3     
  29 C29           -5.5778     0.2919     8.9244 C.3     
  30 C30           -4.5731    -0.1422     7.8553 C.3     
  31 Cl31          -6.4259     2.6443     0.7341 Cl      
  32 H32            3.9420     0.7815    -0.8793 H       
  33 H33            4.4920     3.1017    -0.2620 H       
  34 H34            2.7316     4.6025     0.5807 H       
  35 H35            0.4195     3.7851     0.8076 H       
  36 H36           -2.3657    -0.4513    -1.0696 H       
  37 H37           -3.2119     0.8949    -1.8696 H       
  38 H38           -1.4840     2.4720    -1.0699 H       
  39 H39           -0.7390     1.1552    -2.0088 H       
  40 H40           -0.5606     0.9834     2.2600 H       
  41 H41           -1.3765     2.3689     1.4951 H       
  42 H42           -3.0375     0.7278     2.3070 H       
  43 H43           -2.2657    -0.5476     1.3346 H       
  44 H44            1.6246    -2.4452    -0.3375 H       
  45 H45            3.0715    -1.4682    -0.6843 H       
  46 H46            2.2889    -1.3645     0.9111 H       
  47 H47            0.5251     0.4000    -2.5598 H       
  48 H48            1.9302    -0.6864    -2.6772 H       
  49 H49            0.3144    -1.3541    -2.3429 H       
  50 H50           -5.2589     0.8038    -0.4558 H       
  51 H51           -4.5214    -0.7515    -0.0022 H       
  52 H52           -4.2116    -1.3377     2.3978 H       
  53 H53           -5.1434    -1.1429     4.6249 H       
  54 H54           -7.8001     0.4125     7.1628 H       
  55 H55           -6.6987    -0.8019     6.4698 H       
  56 H56           -5.4511     1.8590     7.3128 H       
  57 H57           -5.2318     0.9908     9.6860 H       
  58 H58           -6.3065    -0.4461     9.2596 H       
  59 H59           -4.6408    -1.1658     7.4871 H       
  60 H60           -3.5661     0.2710     7.9135 H       
@<TRIPOS>BOND
   1    1    2 1
   2    1    9 1
   3    1   12 1
   4    1   13 1
   5    2    3 1
   6    3    4 1
   7    3   15 1
   8    3   16 1
   9    4    5 ar
  10    4    9 ar
  11    5    6 ar
  12    5   32 1
  13    6    7 ar
  14    6   33 1
  15    7    8 ar
  16    7   34 1
  17    8    9 ar
  18    8   35 1
  19   10   11 1
  20   10   14 1
  21   10   17 1
  22   11   12 1
  23   11   36 1
  24   11   37 1
  25   12   38 1
  26   12   39 1
  27   13   14 1
  28   13   40 1
  29   13   41 1
  30   14   42 1
  31   14   43 1
  32   15   44 1
  33   15   45 1
  34   15   46 1
  35   16   47 1
  36   16   48 1
  37   16   49 1
  38   17   20 1
  39   17   50 1
  40   17   51 1
  41   18   19 1
  42   18   23 1
  43   18   25 2
  44   19   20 2
  45   19   31 1
  46   20   21 1
  47   21   22 2
  48   21   52 1
  49   22   23 1
  50   22   53 1
  51   23   26 1
  52   24   25 1
  53   24   26 2
  54   26   27 1
  55   27   28 1
  56   27   54 1
  57   27   55 1
  58   28   29 1
  59   28   30 1
  60   28   56 1
  61   29   30 1
  62   29   57 1
  63   29   58 1
  64   30   59 1
  65   30   60 1

#	End of record

