#	Name: ASD05740134
#	Creating user name:	WinNT
#	Creation time:	15. 06. 2019 21:02

#	Modifying user name:	WinNT
#	Modification time:	15. 06. 2019 21:02

#	Program:	/corina/corina34_cracker 3.40 0067  02.08.2006

@<TRIPOS>MOLECULE
ASD05740134
  57   58    0    0    0
SMALL
NO_CHARGES


@<TRIPOS>ATOM
   1 C1             0.1430     1.6809    -0.6792 C.3     
   2 C2            -3.2693    -1.2025    -1.7309 C.3     
   3 C3            -2.5659    -3.5984    -1.3395 C.2     
   4 C4            -1.5822    -4.5624    -1.1758 C.2     
   5 C5            -2.2059    -2.2552    -1.5517 C.2     
   6 C6            -0.8845    -1.9137    -1.5944 C.2     
   7 C7             0.0856    -2.9104    -1.4256 C.2     
   8 O8            -0.2713    -4.1858    -1.2242 O.3     
   9 C9            -0.4743    -0.4814    -1.8209 C.3     
  10 C10           -0.2277     0.1978    -0.4723 C.3     
  11 C11            0.9979    -0.4282     0.2272 C.3     
  12 O12            1.2681    -2.6137    -1.4628 O.2     
  13 C13            1.5614     1.8262    -0.0873 C.3     
  14 N14            1.7037     3.1188     0.5872 N.am    
  15 S15            2.4272     4.3861    -0.1957 S.o2    
  16 O16            2.4014     5.4444     0.7522 O.2     
  17 O17            3.6579     3.8520    -0.6642 O.2     
  18 C18           -2.0992    -5.8364    -0.9762 C.2     
  19 C19           -3.4350    -5.9298    -0.9734 C.2     
  20 S20           -4.1546    -4.3507    -1.2406 S.3     
  21 O21           -4.1313    -7.0788    -0.7955 O.3     
  22 C22           -5.5569    -6.9844    -0.8237 C.3     
  23 N23            1.6737     0.7153     0.8926 N.3     
  24 C24            3.0810     0.4030     1.1754 C.3     
  25 C25            1.3208     4.7501    -1.5864 C.3     
  26 C26            1.8873     5.9178    -2.3967 C.3     
  27 H27            0.1493     1.9249    -1.7415 H       
  28 H28           -0.5573     2.3241    -0.1463 H       
  29 H29           -4.2538    -1.6657    -1.6659 H       
  30 H30           -3.1699    -0.4491    -0.9494 H       
  31 H31           -3.1532    -0.7312    -2.7068 H       
  32 H32            0.4400    -0.4547    -2.4138 H       
  33 H33           -1.2676     0.0440    -2.3526 H       
  34 H34           -1.1110     0.1132     0.1607 H       
  35 H35            0.6795    -1.1638     0.9658 H       
  36 H36            1.6610    -0.8871    -0.5062 H       
  37 H37            2.3126     1.7221    -0.8703 H       
  38 H38            1.3740     3.2325     1.4923 H       
  39 H39           -1.4635    -6.6976    -0.8325 H       
  40 H40           -5.9896    -7.9729    -0.6691 H       
  41 H41           -5.8923    -6.3133    -0.0330 H       
  42 H42           -5.8762    -6.5952    -1.7904 H       
  43 H43            3.6034     0.2010     0.2403 H       
  44 H44            3.5478     1.2510     1.6765 H       
  45 H45            3.1361    -0.4748     1.8193 H       
  46 H46            1.2386     3.8707    -2.2252 H       
  47 H47            0.3346     5.0164    -1.2061 H       
  48 H48            1.2225     6.1365    -3.2323 H       
  49 H49            1.9694     6.7972    -1.7580 H       
  50 H50            2.8735     5.6515    -2.7770 H       
  51 C51            9.1850    14.4665     8.6876 C.3     
  52 N52            9.2049    13.0017     8.6795 N.2     
  53 C53            9.7456    12.3892     7.7335 C.1     
  54 O54           10.2682    11.7972     6.8193 O.2     
  55 H55           10.2076    14.8438     8.6798 H       
  56 H56            8.6579    14.8276     7.8045 H       
  57 H57            8.6748    14.8181     9.5844 H       
@<TRIPOS>BOND
   1    1   10 1
   2    1   13 1
   3    1   27 1
   4    1   28 1
   5    2    5 1
   6    2   29 1
   7    2   30 1
   8    2   31 1
   9    3    4 2
  10    3    5 1
  11    3   20 1
  12    4   18 1
  13    4    8 1
  14    5    6 2
  15    6    7 1
  16    6    9 1
  17    7    8 1
  18    7   12 2
  19    9   10 1
  20    9   32 1
  21    9   33 1
  22   10   11 1
  23   10   34 1
  24   11   23 1
  25   11   35 1
  26   11   36 1
  27   13   14 1
  28   13   23 1
  29   13   37 1
  30   14   15 am
  31   14   38 1
  32   15   16 2
  33   15   17 2
  34   15   25 1
  35   18   19 2
  36   18   39 1
  37   19   20 1
  38   19   21 1
  39   21   22 1
  40   22   40 1
  41   22   41 1
  42   22   42 1
  43   23   24 1
  44   24   43 1
  45   24   44 1
  46   24   45 1
  47   25   26 1
  48   25   46 1
  49   25   47 1
  50   26   48 1
  51   26   49 1
  52   26   50 1
  53   51   52 1
  54   51   55 1
  55   51   56 1
  56   51   57 1
  57   52   53 2
  58   53   54 2

#	End of record

