#	Name: ASD01915769
#	Creating user name:	WinNT
#	Creation time:	15. 06. 2019 20:06

#	Modifying user name:	WinNT
#	Modification time:	15. 06. 2019 20:06

#	Program:	/corina/corina34_cracker 3.40 0067  02.08.2006

@<TRIPOS>MOLECULE
ASD01915769
  46   49    0    0    0
SMALL
NO_CHARGES


@<TRIPOS>ATOM
   1 C1            -0.0167     1.3790     0.0096 C.ar    
   2 C2             0.0021    -0.0041     0.0020 C.ar    
   3 C3             1.2063    -0.6845    -0.0127 C.ar    
   4 C4             2.3965     0.0142    -0.0198 C.ar    
   5 C5             2.3836     1.4075    -0.0126 C.ar    
   6 C6             1.1676     2.0878     0.0021 C.ar    
   7 C7             3.6601     2.1642    -0.0198 C.2     
   8 N8             4.8680     1.6402    -0.0332 N.2     
   9 N9             5.8012     2.6847    -0.0357 N.pl3   
  10 C10            5.1153     3.8616    -0.0233 C.2     
  11 C11            3.7885     3.5658    -0.0194 C.2     
  12 C12            7.1948     2.5438    -0.0480 C.ar    
  13 C13            7.7937     1.4906     0.6306 C.ar    
  14 C14            9.1680     1.3542     0.6162 C.ar    
  15 C15            9.9475     2.2652    -0.0728 C.ar    
  16 C16            9.3542     3.3153    -0.7492 C.ar    
  17 C17            7.9800     3.4537    -0.7437 C.ar    
  18 N18            5.6730     5.1380    -0.0213 N.am    
  19 C19            4.8732     6.2228    -0.0084 C.2     
  20 C20            5.4661     7.5798    -0.0062 C.ar    
  21 O21            3.6655     6.0873     0.0015 O.2     
  22 C22            6.8542     7.7333    -0.0233 C.ar    
  23 C23            4.6355     8.7026     0.0072 C.ar    
  24 C24            5.1823     9.9655     0.0088 C.ar    
  25 C25            6.5777    10.1243    -0.0030 C.ar    
  26 C26            7.4093     8.9926    -0.0218 C.ar    
  27 N27            7.1172    11.3591    -0.0014 N.2     
  28 O28            6.3944    12.3394     0.0102 O.2     
  29 O29            8.3275    11.4949    -0.0117 O.3     
  30 H30           -0.9598     1.9053     0.0169 H       
  31 H31           -0.9270    -0.5548     0.0079 H       
  32 H32            1.2152    -1.7644    -0.0182 H       
  33 H33            3.3362    -0.5180    -0.0305 H       
  34 H34            1.1518     3.1677     0.0077 H       
  35 H35            2.9776     4.2790    -0.0145 H       
  36 H36            7.1855     0.7792     1.1694 H       
  37 H37            9.6343     0.5353     1.1438 H       
  38 H38           11.0220     2.1566    -0.0823 H       
  39 H39            9.9657     4.0256    -1.2857 H       
  40 H40            7.5169     4.2713    -1.2761 H       
  41 H41            6.6369     5.2462    -0.0291 H       
  42 H42            7.4929     6.8625    -0.0374 H       
  43 H43            3.5626     8.5796     0.0159 H       
  44 H44            4.5393    10.8331     0.0188 H       
  45 H45            8.4828     9.1104    -0.0347 H       
  46 H46            8.6678    12.4001    -0.0101 H       
@<TRIPOS>BOND
   1    1    2 ar
   2    1    6 ar
   3    1   30 1
   4    2    3 ar
   5    2   31 1
   6    3    4 ar
   7    3   32 1
   8    4    5 ar
   9    4   33 1
  10    5    6 ar
  11    5    7 1
  12    6   34 1
  13    7    8 2
  14    7   11 1
  15    8    9 1
  16    9   10 1
  17    9   12 1
  18   10   11 2
  19   10   18 1
  20   11   35 1
  21   12   13 ar
  22   12   17 ar
  23   13   14 ar
  24   13   36 1
  25   14   15 ar
  26   14   37 1
  27   15   16 ar
  28   15   38 1
  29   16   17 ar
  30   16   39 1
  31   17   40 1
  32   18   19 am
  33   18   41 1
  34   19   20 1
  35   19   21 2
  36   20   23 ar
  37   20   22 ar
  38   22   26 ar
  39   22   42 1
  40   23   24 ar
  41   23   43 1
  42   24   25 ar
  43   24   44 1
  44   25   26 ar
  45   25   27 1
  46   26   45 1
  47   27   28 2
  48   27   29 1
  49   29   46 1

#	End of record

