#	Name: ASD05503066
#	Creating user name:	WinNT
#	Creation time:	15. 06. 2019 21:01

#	Modifying user name:	WinNT
#	Modification time:	15. 06. 2019 21:01

#	Program:	/corina/corina34_cracker 3.40 0067  02.08.2006

@<TRIPOS>MOLECULE
ASD05503066
  40   41    0    0    0
SMALL
NO_CHARGES


@<TRIPOS>ATOM
   1 C1            -0.0208     1.3776     0.0263 C.ar    
   2 C2             0.0142     0.0054     0.2419 C.ar    
   3 C3             1.2277    -0.6680     0.2214 C.ar    
   4 C4             2.4021     0.0320    -0.0145 C.ar    
   5 C5             2.3601     1.4043    -0.2293 C.ar    
   6 C6             1.1508     2.0716    -0.2083 C.ar    
   7 N7             3.6269    -0.6427    -0.0355 N.am    
   8 C8             3.6995    -1.8920    -0.5358 C.2     
   9 C9             5.0093    -2.5657    -0.6535 C.ar    
  10 C10            6.1735    -1.9111    -0.2476 C.ar    
  11 C11            7.3931    -2.5457    -0.3602 C.ar    
  12 C12            7.4650    -3.8282    -0.8747 C.ar    
  13 C13            6.3159    -4.4834    -1.2796 C.ar    
  14 C14            5.0877    -3.8629    -1.1663 C.ar    
  15 Br15           3.5178    -4.7601    -1.7197 Br      
  16 N16           -1.1704    -0.6954     0.4795 N.pl3   
  17 C17           -2.4507     0.0163     0.5014 C.3     
  18 C18           -3.5812    -0.9763     0.7799 C.3     
  19 C19           -4.9184    -0.2330     0.8028 C.3     
  20 C20           -6.0489    -1.2256     1.0813 C.3     
  21 O21            2.6874    -2.4647    -0.8902 O.2     
  22 H22           -0.9651     1.9016     0.0377 H       
  23 H23            1.2577    -1.7345     0.3890 H       
  24 H24            3.2740     1.9497    -0.4130 H       
  25 H25            1.1210     3.1382    -0.3752 H       
  26 H26            4.4241    -0.2114     0.3100 H       
  27 H27            6.1195    -0.9098     0.1536 H       
  28 H28            8.2944    -2.0400    -0.0464 H       
  29 H29            8.4227    -4.3199    -0.9608 H       
  30 H30            6.3792    -5.4842    -1.6805 H       
  31 H31           -1.1453    -1.6533     0.6299 H       
  32 H32           -2.4317     0.7743     1.2845 H       
  33 H33           -2.6169     0.4949    -0.4636 H       
  34 H34           -3.6003    -1.7343    -0.0031 H       
  35 H35           -3.4150    -1.4549     1.7450 H       
  36 H36           -4.8993     0.5250     1.5858 H       
  37 H37           -5.0846     0.2456    -0.1623 H       
  38 H38           -6.0680    -1.9836     0.2982 H       
  39 H39           -5.8827    -1.7042     2.0463 H       
  40 H40           -7.0015    -0.6961     1.0976 H       
@<TRIPOS>BOND
   1    1    2 ar
   2    1    6 ar
   3    1   22 1
   4    2    3 ar
   5    2   16 1
   6    3    4 ar
   7    3   23 1
   8    4    5 ar
   9    4    7 1
  10    5    6 ar
  11    5   24 1
  12    6   25 1
  13    7    8 am
  14    7   26 1
  15    8    9 1
  16    8   21 2
  17    9   10 ar
  18    9   14 ar
  19   10   11 ar
  20   10   27 1
  21   11   12 ar
  22   11   28 1
  23   12   13 ar
  24   12   29 1
  25   13   14 ar
  26   13   30 1
  27   14   15 1
  28   16   17 1
  29   16   31 1
  30   17   18 1
  31   17   32 1
  32   17   33 1
  33   18   19 1
  34   18   34 1
  35   18   35 1
  36   19   20 1
  37   19   36 1
  38   19   37 1
  39   20   38 1
  40   20   39 1
  41   20   40 1

#	End of record

