#	Name: ASD03330474
#	Creating user name:	WinNT
#	Creation time:	15. 06. 2019 20:37

#	Modifying user name:	WinNT
#	Modification time:	15. 06. 2019 20:37

#	Program:	/corina/corina34_cracker 3.40 0067  02.08.2006

@<TRIPOS>MOLECULE
ASD03330474
  57   59    0    0    0
SMALL
NO_CHARGES


@<TRIPOS>ATOM
   1 C1             0.1563    -0.4282     1.0251 C.3     
   2 N2             0.1695    -1.8134     0.5341 N.3     
   3 C3             0.6120    -1.8760    -0.8706 C.3     
   4 C4             1.8888    -1.0848    -0.9925 C.2     
   5 N5             2.3233    -0.2052    -0.0523 N.pl3   
   6 C6             1.5949     0.0791     1.1874 C.3     
   7 C7             2.8030    -1.0870    -1.9945 C.2     
   8 N8             3.7825    -0.2167    -1.6582 N.2     
   9 C9             3.4993     0.3158    -0.4905 C.2     
  10 C10            4.3223     1.3150     0.2261 C.ar    
  11 C11            2.7406    -1.8923    -3.2271 C.2     
  12 O12            1.8027    -2.6432    -3.4160 O.2     
  13 C13            3.6606    -2.5971    -5.3704 C.3     
  14 N14            3.7227    -1.7966    -4.1451 N.am    
  15 C15           -1.1472    -2.4433     0.6999 C.3     
  16 C16            5.3326     2.0020    -0.4470 C.ar    
  17 C17            2.8140    -1.8664    -6.4146 C.3     
  18 C18            3.3697    -0.4566    -6.6259 C.3     
  19 C19            2.8587    -2.6356    -7.7364 C.3     
  20 C20            1.3671    -1.7763    -5.9257 C.3     
  21 C21            5.0536    -2.8024    -5.9075 C.2     
  22 O22            5.9289    -2.0055    -5.6435 O.2     
  23 N23            5.3268    -3.8717    -6.6811 N.am    
  24 C24            6.7031    -4.1336    -7.1093 C.3     
  25 C25            6.0982     2.9347     0.2270 C.ar    
  26 C26            5.8637     3.1877     1.5686 C.ar    
  27 C27            4.8620     2.5078     2.2419 C.ar    
  28 C28            4.0869     1.5773     1.5757 C.ar    
  29 F29            7.0773     3.6005    -0.4237 F       
  30 F30            4.6386     2.7588     3.5504 F       
  31 H31           -0.3726     0.2040     0.3119 H       
  32 H32           -0.3523    -0.3901     1.9884 H       
  33 H33            0.7926    -2.9128    -1.1541 H       
  34 H34           -0.1521    -1.4443    -1.5171 H       
  35 H35            1.5874     1.1535     1.3713 H       
  36 H36            2.0740    -0.4340     2.0212 H       
  37 H37            3.2100    -3.5648    -5.1498 H       
  38 H38            4.4707    -1.1977    -3.9944 H       
  39 H39           -1.9038    -1.8417     0.1963 H       
  40 H40           -1.1291    -3.4427     0.2652 H       
  41 H41           -1.3856    -2.5130     1.7612 H       
  42 H42            5.5164     1.8053    -1.4929 H       
  43 H43            4.4005    -0.5209    -6.9742 H       
  44 H44            2.7666     0.0639    -7.3698 H       
  45 H45            3.3379     0.0914    -5.6842 H       
  46 H46            2.4289    -3.6272    -7.5945 H       
  47 H47            2.2858    -2.0959    -8.4904 H       
  48 H48            3.8932    -2.7318    -8.0660 H       
  49 H49            1.3352    -1.2283    -4.9840 H       
  50 H50            0.7639    -1.2557    -6.6695 H       
  51 H51            0.9712    -2.7806    -5.7751 H       
  52 H52            4.6121    -4.4679    -6.9544 H       
  53 H53            7.3358    -4.2741    -6.2329 H       
  54 H54            6.7276    -5.0339    -7.7232 H       
  55 H55            7.0701    -3.2875    -7.6904 H       
  56 H56            6.4642     3.9173     2.0916 H       
  57 H57            3.3059     1.0481     2.1014 H       
@<TRIPOS>BOND
   1    1    2 1
   2    1    6 1
   3    1   31 1
   4    1   32 1
   5    2    3 1
   6    2   15 1
   7    3    4 1
   8    3   33 1
   9    3   34 1
  10    4    5 1
  11    4    7 2
  12    5    6 1
  13    5    9 1
  14    6   35 1
  15    6   36 1
  16    7    8 1
  17    7   11 1
  18    8    9 2
  19    9   10 1
  20   10   16 ar
  21   10   28 ar
  22   11   12 2
  23   11   14 am
  24   13   14 1
  25   13   17 1
  26   13   21 1
  27   13   37 1
  28   14   38 1
  29   15   39 1
  30   15   40 1
  31   15   41 1
  32   16   25 ar
  33   16   42 1
  34   17   18 1
  35   17   19 1
  36   17   20 1
  37   18   43 1
  38   18   44 1
  39   18   45 1
  40   19   46 1
  41   19   47 1
  42   19   48 1
  43   20   49 1
  44   20   50 1
  45   20   51 1
  46   21   22 2
  47   21   23 am
  48   23   24 1
  49   23   52 1
  50   24   53 1
  51   24   54 1
  52   24   55 1
  53   25   26 ar
  54   25   29 1
  55   26   27 ar
  56   26   56 1
  57   27   28 ar
  58   27   30 1
  59   28   57 1

#	End of record

