#	Name: ASD01912954
#	Creating user name:	WinNT
#	Creation time:	15. 06. 2019 20:00

#	Modifying user name:	WinNT
#	Modification time:	15. 06. 2019 20:00

#	Program:	/corina/corina34_cracker 3.40 0067  02.08.2006

@<TRIPOS>MOLECULE
ASD01912954
  41   44    0    0    0
SMALL
NO_CHARGES


@<TRIPOS>ATOM
   1 C1            -0.0173     1.4278     0.0099 C.2     
   2 C2             0.0021    -0.0041     0.0020 C.1     
   3 C3             0.0180    -1.1779    -0.0044 C.1     
   4 C4             0.0374    -2.6098    -0.0123 C.ar    
   5 C5            -1.1617    -3.3288    -0.0047 C.ar    
   6 C6             1.2555    -3.2959    -0.0334 C.ar    
   7 C7             1.2660    -4.6748    -0.0408 C.ar    
   8 C8             0.0750    -5.3795    -0.0279 C.ar    
   9 C9            -1.1348    -4.7075    -0.0123 C.ar    
  10 N10            1.0414     2.1986     0.0039 N.2     
  11 C11            0.8590     3.4900     0.0140 C.2     
  12 C12           -0.4739     3.8662     0.0223 C.2     
  13 S13           -1.4698     2.4259     0.0215 S.3     
  14 C14            1.9414     4.5601     0.0314 C.3     
  15 C15            1.4118     5.8070    -0.6732 C.3     
  16 N16            0.0829     6.1906    -0.2120 N.am    
  17 C17           -0.8857     5.2740     0.0161 C.2     
  18 O18           -2.0423     5.6016     0.2066 O.2     
  19 C19           -0.2116     7.6082     0.0110 C.3     
  20 C20           -1.3717     8.0547    -0.8960 C.3     
  21 C21           -2.5033     8.5307     0.0381 C.3     
  22 C22           -1.7761     8.9157     1.3503 C.3     
  23 C23           -0.6788     7.8285     1.4647 C.3     
  24 H24           -2.1066    -2.8058     0.0074 H       
  25 H25            2.1858    -2.7473    -0.0442 H       
  26 H26            2.2061    -5.2062    -0.0571 H       
  27 H27            0.0896    -6.4594    -0.0345 H       
  28 H28           -2.0601    -5.2643    -0.0023 H       
  29 H29            2.1974     4.8041     1.0625 H       
  30 H30            2.8258     4.1938    -0.4898 H       
  31 H31            2.0995     6.6329    -0.4918 H       
  32 H32            1.3706     5.6148    -1.7454 H       
  33 H33            0.6743     8.2099    -0.1924 H       
  34 H34           -1.0490     8.8735    -1.5390 H       
  35 H35           -1.7155     7.2166    -1.5021 H       
  36 H36           -3.0090     9.3980    -0.3864 H       
  37 H37           -3.2139     7.7240     0.2184 H       
  38 H38           -1.3305     9.9071     1.2684 H       
  39 H39           -2.4584     8.8666     2.1989 H       
  40 H40           -1.0947     6.9085     1.8753 H       
  41 H41            0.1471     8.1834     2.0812 H       
@<TRIPOS>BOND
   1    1    2 1
   2    1   10 2
   3    1   13 1
   4    2    3 3
   5    3    4 1
   6    4    5 ar
   7    4    6 ar
   8    5    9 ar
   9    5   24 1
  10    6    7 ar
  11    6   25 1
  12    7    8 ar
  13    7   26 1
  14    8    9 ar
  15    8   27 1
  16    9   28 1
  17   10   11 1
  18   11   12 2
  19   11   14 1
  20   12   13 1
  21   12   17 1
  22   14   15 1
  23   14   29 1
  24   14   30 1
  25   15   16 1
  26   15   31 1
  27   15   32 1
  28   16   17 am
  29   16   19 1
  30   17   18 2
  31   19   20 1
  32   19   23 1
  33   19   33 1
  34   20   21 1
  35   20   34 1
  36   20   35 1
  37   21   22 1
  38   21   36 1
  39   21   37 1
  40   22   23 1
  41   22   38 1
  42   22   39 1
  43   23   40 1
  44   23   41 1

#	End of record

