#	Name: ASD07301043
#	Creating user name:	WinNT
#	Creation time:	15. 06. 2019 21:10

#	Modifying user name:	WinNT
#	Modification time:	15. 06. 2019 21:10

#	Program:	/corina/corina34_cracker 3.40 0067  02.08.2006

@<TRIPOS>MOLECULE
ASD07301043
  31   32    0    0    0
SMALL
NO_CHARGES


@<TRIPOS>ATOM
   1 C1            -0.0179     1.4651     0.0101 C.2     
   2 C2             0.0021    -0.0041     0.0020 C.2     
   3 C3             1.2770    -0.6367    -0.0136 C.2     
   4 C4             2.3783     0.1590    -0.0198 C.2     
   5 N5             2.2579     1.5099    -0.0109 N.pl3   
   6 N6             1.1288     2.1161     0.0026 N.2     
   7 C7            -1.2974     2.1985     0.0202 C.2     
   8 O8            -2.3477     1.5877     0.0218 O.2     
   9 O9            -1.3016     3.5461     0.0275 O.3     
  10 O10           -1.0315    -0.6549     0.0088 O.2     
  11 O11            1.3891    -1.9916    -0.0215 O.3     
  12 C12            2.7114    -2.5332    -0.0370 C.3     
  13 C13            3.4254     2.2807    -0.0175 C.ar    
  14 C14            3.6363     3.2358     0.9724 C.ar    
  15 C15            4.7921     3.9951     0.9624 C.ar    
  16 C16            5.7363     3.8060    -0.0300 C.ar    
  17 C17            5.5288     2.8576    -1.0154 C.ar    
  18 C18            4.3793     2.0907    -1.0084 C.ar    
  19 I19            6.9634     2.5779    -2.5163 I       
  20 F20            2.7133     3.4211     1.9415 F       
  21 C21           -2.5974     4.2012     0.0372 C.3     
  22 H22            3.3608    -0.2894    -0.0316 H       
  23 H23            2.6581    -3.6218    -0.0420 H       
  24 H24            3.2337    -2.1909    -0.9304 H       
  25 H25            3.2510    -2.1998     0.8494 H       
  26 H26            4.9571     4.7367     1.7300 H       
  27 H27            6.6379     4.4005    -0.0359 H       
  28 H28            4.2209     1.3473    -1.7757 H       
  29 H29           -2.4579     5.2822     0.0424 H       
  30 H30           -3.1577     3.9114    -0.8517 H       
  31 H31           -3.1492     3.9017     0.9282 H       
@<TRIPOS>BOND
   1    1    2 1
   2    1    6 2
   3    1    7 1
   4    2    3 1
   5    2   10 2
   6    3    4 2
   7    3   11 1
   8    4    5 1
   9    4   22 1
  10    5    6 1
  11    5   13 1
  12    7    8 2
  13    7    9 1
  14    9   21 1
  15   11   12 1
  16   12   23 1
  17   12   24 1
  18   12   25 1
  19   13   14 ar
  20   13   18 ar
  21   14   15 ar
  22   14   20 1
  23   15   16 ar
  24   15   26 1
  25   16   17 ar
  26   16   27 1
  27   17   18 ar
  28   17   19 1
  29   18   28 1
  30   21   29 1
  31   21   30 1
  32   21   31 1

#	End of record

