#	Name: ASD08170267
#	Creating user name:	WinNT
#	Creation time:	15. 06. 2019 21:17

#	Modifying user name:	WinNT
#	Modification time:	15. 06. 2019 21:17

#	Program:	/corina/corina34_cracker 3.40 0067  02.08.2006

@<TRIPOS>MOLECULE
ASD08170267
  66   69    0    0    0
SMALL
NO_CHARGES


@<TRIPOS>ATOM
   1 O1            -0.0173     1.4255     0.0099 O.3     
   2 C2             0.0021    -0.0041     0.0020 C.3     
   3 O3             0.6958    -0.4649    -1.1600 O.3     
   4 C4             2.0457     0.0014    -1.2486 C.3     
   5 C5             2.0444     1.5340    -1.2382 C.3     
   6 C6             1.2842     2.0200     0.0006 C.3     
   7 C7             3.4632     2.0398    -1.1907 C.2     
   8 O8             4.3867     1.2539    -1.1674 O.2     
   9 N9             3.7058     3.3654    -1.1741 N.am    
  10 C10            1.3538     2.0546    -2.5004 C.3     
  11 C11            0.7158    -0.5113     1.2567 C.3     
  12 C12           -1.4333    -0.5335    -0.0175 C.3     
  13 S13            5.4879     5.4786    -1.1043 S.3     
  14 C14            5.0151     3.8322    -1.1303 C.2     
  15 N15            6.0822     3.0921    -1.1017 N.2     
  16 N16            7.2003     3.6771    -1.0626 N.2     
  17 C17            7.1769     4.9721    -1.0547 C.2     
  18 C18            8.3769     5.8825    -1.0104 C.3     
  19 C19            8.8285     6.2009    -2.4372 C.3     
  20 C20           10.0469     7.1252    -2.3922 C.3     
  21 C21           10.4985     7.4435    -3.8190 C.3     
  22 S22           11.6666    10.1176    -3.7632 S.3     
  23 C23           11.6985     8.3540    -3.7747 C.2     
  24 N24           12.9387     7.9821    -3.7378 N.2     
  25 N25           13.8033     8.9014    -3.7037 N.2     
  26 C26           13.3788    10.1289    -3.7086 C.2     
  27 C27           15.5227    11.1404    -3.6334 C.2     
  28 C28           16.3923    12.3707    -3.5974 C.3     
  29 O29           16.0300    10.0388    -3.6246 O.2     
  30 N30           14.1813    11.2643    -3.6753 N.am    
  31 C31           17.8417    11.9603    -3.5539 C.ar    
  32 C32           18.5443    11.7802    -4.7305 C.ar    
  33 C33           19.8758    11.4037    -4.6903 C.ar    
  34 C34           20.5023    11.2079    -3.4709 C.ar    
  35 C35           19.7980    11.3885    -2.2960 C.ar    
  36 C36           18.4695    11.7697    -2.3374 C.ar    
  37 F37           20.5634    11.2269    -5.8397 F       
  38 H38            2.6163    -0.3688    -0.3969 H       
  39 H39            2.4955    -0.3568    -2.1746 H       
  40 H40            1.1894     3.1053    -0.0319 H       
  41 H41            1.8260     1.7262     0.8997 H       
  42 H42            2.9672     3.9939    -1.1928 H       
  43 H43            0.3264     1.6915    -2.5284 H       
  44 H44            1.3538     3.1446    -2.4912 H       
  45 H45            1.8892     1.6986    -3.3806 H       
  46 H46            0.1869    -0.1600     2.1427 H       
  47 H47            0.7306    -1.6012     1.2507 H       
  48 H48            1.7384    -0.1342     1.2706 H       
  49 H49           -1.9417    -0.1721    -0.9113 H       
  50 H50           -1.4185    -1.6234    -0.0235 H       
  51 H51           -1.9622    -0.1822     0.8685 H       
  52 H52            8.1125     6.8076    -0.4981 H       
  53 H53            9.1877     5.3892    -0.4742 H       
  54 H54            9.0930     5.2758    -2.9495 H       
  55 H55            8.0178     6.6941    -2.9733 H       
  56 H56            9.7825     8.0502    -1.8799 H       
  57 H57           10.8576     6.6319    -1.8560 H       
  58 H58           10.7629     6.5185    -4.3313 H       
  59 H59            9.6878     7.9368    -4.3551 H       
  60 H60           16.2110    12.9700    -4.4896 H       
  61 H61           16.1542    12.9581    -2.7106 H       
  62 H62           13.7756    12.1454    -3.6824 H       
  63 H63           18.0545    11.9329    -5.6809 H       
  64 H64           21.5410    10.9137    -3.4383 H       
  65 H65           20.2864    11.2358    -1.3449 H       
  66 H66           17.9210    11.9150    -1.4185 H       
@<TRIPOS>BOND
   1    1    2 1
   2    1    6 1
   3    2    3 1
   4    2   11 1
   5    2   12 1
   6    3    4 1
   7    4    5 1
   8    4   38 1
   9    4   39 1
  10    5    6 1
  11    5    7 1
  12    5   10 1
  13    6   40 1
  14    6   41 1
  15    7    8 2
  16    7    9 am
  17    9   14 1
  18    9   42 1
  19   10   43 1
  20   10   44 1
  21   10   45 1
  22   11   46 1
  23   11   47 1
  24   11   48 1
  25   12   49 1
  26   12   50 1
  27   12   51 1
  28   13   14 1
  29   13   17 1
  30   14   15 2
  31   15   16 1
  32   16   17 2
  33   17   18 1
  34   18   19 1
  35   18   52 1
  36   18   53 1
  37   19   20 1
  38   19   54 1
  39   19   55 1
  40   20   21 1
  41   20   56 1
  42   20   57 1
  43   21   23 1
  44   21   58 1
  45   21   59 1
  46   22   23 1
  47   22   26 1
  48   23   24 2
  49   24   25 1
  50   25   26 2
  51   26   30 1
  52   27   28 1
  53   27   29 2
  54   27   30 am
  55   28   31 1
  56   28   60 1
  57   28   61 1
  58   30   62 1
  59   31   32 ar
  60   31   36 ar
  61   32   33 ar
  62   32   63 1
  63   33   34 ar
  64   33   37 1
  65   34   35 ar
  66   34   64 1
  67   35   36 ar
  68   35   65 1
  69   36   66 1

#	End of record

