#	Name: ASD01910576
#	Creating user name:	WinNT
#	Creation time:	15. 06. 2019 19:56

#	Modifying user name:	WinNT
#	Modification time:	15. 06. 2019 19:56

#	Program:	/corina/corina34_cracker 3.40 0067  02.08.2006

@<TRIPOS>MOLECULE
ASD01910576
  42   45    0    0    0
SMALL
NO_CHARGES


@<TRIPOS>ATOM
   1 O1            -0.0261     1.3915     0.0353 O.3     
   2 C2            -0.0214     0.0479     0.0345 C.2     
   3 N3             1.2495    -0.3254     0.0171 N.2     
   4 C4             1.9578     0.8134     0.0081 C.2     
   5 N5             1.1144     1.8036     0.0200 N.2     
   6 C6            -1.1962    -0.8348     0.0507 C.2     
   7 C7            -2.4977    -0.4305     0.0689 C.2     
   8 C8            -3.2949    -1.5992     0.0798 C.2     
   9 C9            -2.4331    -2.6776     0.0677 C.2     
  10 N10           -1.1702    -2.2107     0.0442 N.pl3   
  11 C11            3.9332     1.6834     1.2329 C.3     
  12 C12            3.4605     0.9257    -0.0118 C.3     
  13 C13            3.8994     1.6869    -1.2648 C.3     
  14 C14            5.4269     1.7729    -1.3027 C.3     
  15 C15            5.9218     2.5402    -0.0726 C.3     
  16 N16            5.3834     1.8975     1.1339 N.am    
  17 C17            6.2042     1.5113     2.1307 C.2     
  18 C18            7.6699     1.6472     1.9770 C.ar    
  19 O19            5.7407     1.0516     3.1558 O.2     
  20 C20           -4.7258    -1.6533     0.0997 C.1     
  21 C21            8.2480     2.8794     1.6552 C.ar    
  22 C22            9.6199     2.9614     1.5218 C.ar    
  23 N23           10.3830     1.9001     1.6926 N.ar    
  24 C24            9.8827     0.7197     1.9962 C.ar    
  25 C25            8.5178     0.5465     2.1553 C.ar    
  26 N26           -5.8608    -1.6962     0.1155 N.1     
  27 F27            8.0116    -0.6666     2.4672 F       
  28 H28           -2.8533     0.5893     0.0740 H       
  29 H29           -2.7225    -3.7181     0.0719 H       
  30 H30           -0.3691    -2.7575     0.0316 H       
  31 H31            3.4247     2.6459     1.2898 H       
  32 H32            3.7104     1.0969     2.1242 H       
  33 H33            3.9002    -0.0717    -0.0194 H       
  34 H34            3.5431     1.1627    -2.1516 H       
  35 H35            3.4795     2.6926    -1.2444 H       
  36 H36            5.8481     0.7676    -1.2981 H       
  37 H37            5.7396     2.2948    -2.2071 H       
  38 H38            7.0112     2.5191    -0.0427 H       
  39 H39            5.5755     3.5726    -0.1222 H       
  40 H40            7.6305     3.7539     1.5129 H       
  41 H41           10.0746     3.9091     1.2735 H       
  42 H42           10.5457    -0.1227     2.1269 H       
@<TRIPOS>BOND
   1    1    2 1
   2    1    5 1
   3    2    3 2
   4    2    6 1
   5    3    4 1
   6    4    5 2
   7    4   12 1
   8    6    7 2
   9    6   10 1
  10    7    8 1
  11    7   28 1
  12    8    9 2
  13    8   20 1
  14    9   10 1
  15    9   29 1
  16   10   30 1
  17   11   12 1
  18   11   16 1
  19   11   31 1
  20   11   32 1
  21   12   13 1
  22   12   33 1
  23   13   14 1
  24   13   34 1
  25   13   35 1
  26   14   15 1
  27   14   36 1
  28   14   37 1
  29   15   16 1
  30   15   38 1
  31   15   39 1
  32   16   17 am
  33   17   18 1
  34   17   19 2
  35   18   21 ar
  36   18   25 ar
  37   20   26 3
  38   21   22 ar
  39   21   40 1
  40   22   23 ar
  41   22   41 1
  42   23   24 ar
  43   24   25 ar
  44   24   42 1
  45   25   27 1

#	End of record

