#	Name: ASD03240524
#	Creating user name:	WinNT
#	Creation time:	15. 06. 2019 20:35

#	Modifying user name:	WinNT
#	Modification time:	15. 06. 2019 20:35

#	Program:	/corina/corina34_cracker 3.40 0067  02.08.2006

@<TRIPOS>MOLECULE
ASD03240524
  59   65    0    0    0
SMALL
NO_CHARGES


@<TRIPOS>ATOM
   1 C1            -0.0166     1.3755     0.0096 C.ar    
   2 C2             0.0021    -0.0041     0.0020 C.ar    
   3 N3             1.1422    -0.6683    -0.0054 N.ar    
   4 C4             2.3145    -0.0481    -0.0053 C.ar    
   5 C5             2.3702     1.3442    -0.0124 C.ar    
   6 C6             1.1860     2.0698     0.0019 C.ar    
   7 N7             3.4819    -0.8058     0.0229 N.pl3   
   8 C8             4.3586    -0.7196     1.1009 C.ar    
   9 C9             4.9950     0.4885     1.4050 C.ar    
  10 C10            4.7644     1.6830     0.5630 C.2     
  11 N11            3.5938     2.0276    -0.0512 N.pl3   
  12 C12            4.6037    -1.8394     1.8845 C.ar    
  13 C13            5.4631    -1.7543     2.9633 C.ar    
  14 C14            6.0848    -0.5566     3.2718 C.ar    
  15 C15            5.8555     0.5646     2.4999 C.ar    
  16 N16            5.6763     2.5928     0.2864 N.2     
  17 C17            5.1462     3.5389    -0.5047 C.2     
  18 C18            3.8221     3.2027    -0.7363 C.2     
  19 C19            2.8495     3.9529    -1.5543 C.ar    
  20 C20            2.7507     5.3409    -1.4299 C.ar    
  21 C21            2.0272     3.2792    -2.4607 C.ar    
  22 C22            1.1205     3.9869    -3.2219 C.ar    
  23 C23            1.0245     5.3610    -3.0896 C.ar    
  24 C24            1.8394     6.0356    -2.1976 C.ar    
  25 C25            5.8497     4.7289    -1.0343 C.ar    
  26 C26            6.8251     5.3849    -0.2746 C.ar    
  27 C27            5.5621     5.2255    -2.3108 C.ar    
  28 C28            6.2416     6.3361    -2.7648 C.ar    
  29 N29            7.1511     6.9281    -2.0136 N.ar    
  30 C30            7.4560     6.4894    -0.8068 C.ar    
  31 C31            0.0319     6.1273    -3.9256 C.3     
  32 N32           -1.0468     5.2794    -4.4503 N.3     
  33 C33           -0.4691     7.4186    -3.2576 C.3     
  34 C34           -0.3813     8.0769    -4.6446 C.3     
  35 C35            0.6855     7.0226    -4.9915 C.3     
  36 H36           -0.9556     1.9091     0.0170 H       
  37 H37           -0.9306    -0.5486     0.0025 H       
  38 H38            1.2002     3.1497     0.0068 H       
  39 H39            3.6865    -1.4001    -0.7160 H       
  40 H40            4.1222    -2.7774     1.6509 H       
  41 H41            5.6512    -2.6281     3.5695 H       
  42 H42            6.7513    -0.4990     4.1197 H       
  43 H43            6.3421     1.4977     2.7424 H       
  44 H44            3.3862     5.8686    -0.7341 H       
  45 H45            2.1016     2.2069    -2.5654 H       
  46 H46            0.4842     3.4674    -3.9230 H       
  47 H47            1.7588     7.1081    -2.0993 H       
  48 H48            7.0794     5.0316     0.7137 H       
  49 H49            4.8194     4.7458    -2.9310 H       
  50 H50            6.0270     6.7266    -3.7485 H       
  51 H51            8.2067     7.0052    -0.2265 H       
  52 H52           -0.6739     4.4572    -4.9009 H       
  53 H53           -1.6968     5.0283    -3.7205 H       
  54 H54           -1.4862     7.3449    -2.8728 H       
  55 H55            0.2300     7.8344    -2.5319 H       
  56 H56           -1.2947     7.9815    -5.2317 H       
  57 H57            0.0029     9.0966    -4.6204 H       
  58 H58            1.7008     7.3295    -4.7401 H       
  59 H59            0.5993     6.6313    -6.0052 H       
@<TRIPOS>BOND
   1    1    2 ar
   2    1    6 ar
   3    1   36 1
   4    2    3 ar
   5    2   37 1
   6    3    4 ar
   7    4    5 ar
   8    4    7 1
   9    5    6 ar
  10    5   11 1
  11    6   38 1
  12    7    8 1
  13    7   39 1
  14    8    9 ar
  15    8   12 ar
  16    9   10 1
  17    9   15 ar
  18   10   11 1
  19   10   16 2
  20   11   18 1
  21   12   13 ar
  22   12   40 1
  23   13   14 ar
  24   13   41 1
  25   14   15 ar
  26   14   42 1
  27   15   43 1
  28   16   17 1
  29   17   18 2
  30   17   25 1
  31   18   19 1
  32   19   20 ar
  33   19   21 ar
  34   20   24 ar
  35   20   44 1
  36   21   22 ar
  37   21   45 1
  38   22   23 ar
  39   22   46 1
  40   23   24 ar
  41   23   31 1
  42   24   47 1
  43   25   26 ar
  44   25   27 ar
  45   26   30 ar
  46   26   48 1
  47   27   28 ar
  48   27   49 1
  49   28   29 ar
  50   28   50 1
  51   29   30 ar
  52   30   51 1
  53   31   32 1
  54   31   33 1
  55   31   35 1
  56   32   52 1
  57   32   53 1
  58   33   34 1
  59   33   54 1
  60   33   55 1
  61   34   35 1
  62   34   56 1
  63   34   57 1
  64   35   58 1
  65   35   59 1

#	End of record

