#	Name: ASD04910167
#	Creating user name:	WinNT
#	Creation time:	15. 06. 2019 20:55

#	Modifying user name:	WinNT
#	Modification time:	15. 06. 2019 20:55

#	Program:	/corina/corina34_cracker 3.40 0067  02.08.2006

@<TRIPOS>MOLECULE
ASD04910167
  29   30    0    0    0
SMALL
NO_CHARGES


@<TRIPOS>ATOM
   1 C1            -0.0167     1.3831     0.0096 C.ar    
   2 C2             0.0021    -0.0041     0.0020 C.ar    
   3 C3             1.2070    -0.6783    -0.0131 C.ar    
   4 C4             2.3995     0.0320    -0.0206 C.ar    
   5 C5             2.3803     1.4200    -0.0130 C.ar    
   6 C6             1.1749     2.0934     0.0021 C.ar    
   7 O7            -1.2033     2.0466     0.0189 O.3     
   8 C8             4.0948    -1.4444    -1.0339 C.2     
   9 N9             5.2652    -1.9042    -0.6837 N.2     
  10 C10            5.5824    -1.4325     0.5310 C.2     
  11 C11            4.5723    -0.6490     0.9547 C.2     
  12 N12            3.6246    -0.6530    -0.0355 N.pl3   
  13 C13            6.8497    -1.7287     1.2908 C.3     
  14 F14            7.7088    -2.4862     0.4876 F       
  15 F15            7.4759    -0.5273     1.6397 F       
  16 F16            6.5409    -2.4475     2.4506 F       
  17 C17            3.6747     2.1917    -0.0212 C.3     
  18 C18            1.2273    -2.1851    -0.0209 C.3     
  19 H19           -0.9258    -0.5567     0.0083 H       
  20 H20            1.1599     3.1733     0.0080 H       
  21 H21           -1.5424     2.2337     0.9049 H       
  22 H22            3.5874    -1.6544    -1.9639 H       
  23 H23            4.5191    -0.1195     1.8945 H       
  24 H24            3.9769     2.3832    -1.0508 H       
  25 H25            3.5359     3.1394     0.4991 H       
  26 H26            4.4473     1.6105     0.4822 H       
  27 H27            1.2222    -2.5433    -1.0504 H       
  28 H28            2.1270    -2.5390     0.4825 H       
  29 H29            0.3473    -2.5631     0.4996 H       
@<TRIPOS>BOND
   1    1    2 ar
   2    1    6 ar
   3    1    7 1
   4    2    3 ar
   5    2   19 1
   6    3    4 ar
   7    3   18 1
   8    4    5 ar
   9    4   12 1
  10    5    6 ar
  11    5   17 1
  12    6   20 1
  13    7   21 1
  14    8    9 2
  15    8   12 1
  16    8   22 1
  17    9   10 1
  18   10   11 2
  19   10   13 1
  20   11   12 1
  21   11   23 1
  22   13   14 1
  23   13   15 1
  24   13   16 1
  25   17   24 1
  26   17   25 1
  27   17   26 1
  28   18   27 1
  29   18   28 1
  30   18   29 1

#	End of record

