#	Name: ASD03240954
#	Creating user name:	WinNT
#	Creation time:	15. 06. 2019 20:35

#	Modifying user name:	WinNT
#	Modification time:	15. 06. 2019 20:35

#	Program:	/corina/corina34_cracker 3.40 0067  02.08.2006

@<TRIPOS>MOLECULE
ASD03240954
  64   69    0    0    0
SMALL
NO_CHARGES


@<TRIPOS>ATOM
   1 C1            -0.0188     1.5336     0.0105 C.3     
   2 C2             0.0021    -0.0041     0.0020 C.3     
   3 C3             1.3815     0.0967    -0.6702 C.3     
   4 C4             1.5179     1.4762    -0.0045 C.3     
   5 O5            -0.5818     2.1049    -1.1721 O.3     
   6 C6            -0.5973     2.1316     1.2944 C.3     
   7 C7             2.3746    -0.9181    -0.1653 C.ar    
   8 C8             3.3681    -1.3872    -1.0061 C.ar    
   9 C9             4.2804    -2.3163    -0.5497 C.ar    
  10 C10            4.1994    -2.7827     0.7625 C.ar    
  11 C11            3.1954    -2.3058     1.6054 C.ar    
  12 C12            2.2926    -1.3725     1.1389 C.ar    
  13 N13            6.9695    -6.5938    -0.0353 N.pl3   
  14 C14            7.8710    -7.5255     0.4032 C.2     
  15 N15            8.3279    -7.5350     1.6680 N.2     
  16 C16            7.9377    -6.6546     2.5533 C.2     
  17 C17            6.9756    -5.6282     2.1579 C.ar    
  18 C18            6.5202    -4.6602     3.0597 C.ar    
  19 C19            5.6033    -3.7212     2.5992 C.ar    
  20 C20            5.1750    -3.7801     1.2585 C.ar    
  21 N21            5.6288    -4.7119     0.4335 N.ar    
  22 C22            6.4996    -5.6237     0.8296 C.ar    
  23 C23            8.1491    -8.3523    -0.6769 C.2     
  24 C24            7.4033    -7.9005    -1.7583 C.2     
  25 N25            6.6977    -6.8607    -1.3826 N.2     
  26 C26            5.0732    -1.3650     3.1815 C.2     
  27 C27            5.0838    -2.6710     3.5078 C.2     
  28 C28            4.5654    -2.9543     4.7705 C.2     
  29 C29            4.1427    -1.8939     5.4536 C.2     
  30 S30            4.3857    -0.4336     4.5052 S.3     
  31 C31            7.4010    -8.5094    -3.1368 C.3     
  32 C32            6.5979    -9.8115    -3.1178 C.3     
  33 C33            6.7632    -7.5311    -4.1253 C.3     
  34 C34            8.8395    -8.8036    -3.5668 C.3     
  35 N35            1.3186     0.1546    -2.1367 N.3     
  36 H36            0.0329    -0.4458     0.9980 H       
  37 H37           -0.7629    -0.4476    -0.6353 H       
  38 H38            1.9766     2.2276    -0.6471 H       
  39 H39            1.9632     1.4391     0.9897 H       
  40 H40           -0.5977     3.0718    -1.1727 H       
  41 H41            0.0010     1.8098     2.1469 H       
  42 H42           -0.5800     3.2195     1.2285 H       
  43 H43           -1.6249     1.7917     1.4227 H       
  44 H44            3.4295    -1.0257    -2.0219 H       
  45 H45            5.0553    -2.6820    -1.2071 H       
  46 H46            3.1276    -2.6631     2.6223 H       
  47 H47            1.5177    -0.9990     1.7919 H       
  48 H48            8.3209    -6.6862     3.5625 H       
  49 H49            6.8692    -4.6432     4.0816 H       
  50 H50            8.8243    -9.1952    -0.6766 H       
  51 H51            5.4354    -0.9522     2.2515 H       
  52 H52            4.5108    -3.9585     5.1642 H       
  53 H53            3.7136    -1.9254     6.4443 H       
  54 H54            5.5731    -9.6019    -2.8115 H       
  55 H55            6.5962   -10.2519    -4.1149 H       
  56 H56            7.0523   -10.5084    -2.4136 H       
  57 H57            7.3353    -6.6035    -4.1388 H       
  58 H58            6.7615    -7.9715    -5.1224 H       
  59 H59            5.7383    -7.3215    -3.8189 H       
  60 H60            9.2940    -9.5005    -2.8626 H       
  61 H61            8.8379    -9.2440    -4.5639 H       
  62 H62            9.4117    -7.8759    -3.5803 H       
  63 H63            2.2430     0.2199    -2.5360 H       
  64 H64            0.8193    -0.6393    -2.5089 H       
@<TRIPOS>BOND
   1    1    2 1
   2    1    4 1
   3    1    5 1
   4    1    6 1
   5    2    3 1
   6    2   36 1
   7    2   37 1
   8    3    4 1
   9    3    7 1
  10    3   35 1
  11    4   38 1
  12    4   39 1
  13    5   40 1
  14    6   41 1
  15    6   42 1
  16    6   43 1
  17    7    8 ar
  18    7   12 ar
  19    8    9 ar
  20    8   44 1
  21    9   10 ar
  22    9   45 1
  23   10   11 ar
  24   10   20 1
  25   11   12 ar
  26   11   46 1
  27   12   47 1
  28   13   14 1
  29   13   22 1
  30   13   25 1
  31   14   15 1
  32   14   23 2
  33   15   16 2
  34   16   17 1
  35   16   48 1
  36   17   18 ar
  37   17   22 ar
  38   18   19 ar
  39   18   49 1
  40   19   20 ar
  41   19   27 1
  42   20   21 ar
  43   21   22 ar
  44   23   24 1
  45   23   50 1
  46   24   25 2
  47   24   31 1
  48   26   27 2
  49   26   30 1
  50   26   51 1
  51   27   28 1
  52   28   29 2
  53   28   52 1
  54   29   30 1
  55   29   53 1
  56   31   32 1
  57   31   34 1
  58   31   33 1
  59   32   54 1
  60   32   55 1
  61   32   56 1
  62   33   57 1
  63   33   58 1
  64   33   59 1
  65   34   60 1
  66   34   61 1
  67   34   62 1
  68   35   63 1
  69   35   64 1

#	End of record

