#	Name: ASD01028741
#	Creating user name:	WinNT
#	Creation time:	15. 06. 2019 18:58

#	Modifying user name:	WinNT
#	Modification time:	15. 06. 2019 18:58

#	Program:	/corina/corina34_cracker 3.40 0067  02.08.2006

@<TRIPOS>MOLECULE
ASD01028741
  35   37    0    0    0
SMALL
NO_CHARGES


@<TRIPOS>ATOM
   1 C1            -0.0162     1.3436     0.0094 C.2     
   2 N2             0.0021    -0.0041     0.0020 N.am    
   3 O3             1.0279     1.9655     0.0028 O.2     
   4 O4            -1.1915     2.0010     0.0186 O.3     
   5 C5            -1.2565    -0.7538     0.0100 C.3     
   6 C6             1.9895    -1.1157    -1.1992 C.ar    
   7 C7             3.1355    -1.7568    -0.6961 C.ar    
   8 C8             4.0678    -2.2724    -1.5916 C.ar    
   9 C9             3.8277    -2.1325    -2.9449 C.ar    
  10 C10            2.6683    -1.4843    -3.3764 C.ar    
  11 N11            1.7948    -1.0014    -2.5062 N.ar    
  12 O12            3.0630    -1.7224     0.6488 O.3     
  13 C13            1.2298    -0.6908    -0.0134 C.2     
  14 C14            1.9406    -1.0986     1.0532 C.2     
  15 C15            2.4117    -1.3348    -4.8299 C.ar    
  16 C16            1.2588    -0.6902    -5.2733 C.ar    
  17 C17            1.0238    -0.5531    -6.6288 C.ar    
  18 C18            1.9321    -1.0559    -7.5455 C.ar    
  19 C19            3.0795    -1.6974    -7.1094 C.ar    
  20 C20            3.3258    -1.8335    -5.7557 C.ar    
  21 F21            3.9622    -2.1859    -8.0079 F       
  22 F22           -0.0938     0.0717    -7.0598 F       
  23 C23           -1.1352     3.4519     0.0262 C.3     
  24 H24           -1.5785    -0.9342    -1.0156 H       
  25 H25           -1.1084    -1.7071     0.5173 H       
  26 H26           -2.0192    -0.1778     0.5342 H       
  27 H27            4.9583    -2.7699    -1.2370 H       
  28 H28            4.5324    -2.5216    -3.6648 H       
  29 H29            1.6551    -0.9441     2.0832 H       
  30 H30            0.5496    -0.2985    -4.5591 H       
  31 H31            1.7450    -0.9477    -8.6037 H       
  32 H32            4.2231    -2.3296    -5.4164 H       
  33 H33           -0.6034     3.7902     0.9155 H       
  34 H34           -0.6119     3.7998    -0.8644 H       
  35 H35           -2.1480     3.8547     0.0332 H       
@<TRIPOS>BOND
   1    1    2 am
   2    1    3 2
   3    1    4 1
   4    2    5 1
   5    2   13 1
   6    4   23 1
   7    5   24 1
   8    5   25 1
   9    5   26 1
  10    6    7 ar
  11    6   11 ar
  12    6   13 1
  13    7    8 ar
  14    7   12 1
  15    8    9 ar
  16    8   27 1
  17    9   10 ar
  18    9   28 1
  19   10   11 ar
  20   10   15 1
  21   12   14 1
  22   13   14 2
  23   14   29 1
  24   15   16 ar
  25   15   20 ar
  26   16   17 ar
  27   16   30 1
  28   17   18 ar
  29   17   22 1
  30   18   19 ar
  31   18   31 1
  32   19   20 ar
  33   19   21 1
  34   20   32 1
  35   23   33 1
  36   23   34 1
  37   23   35 1

#	End of record

