#	Name: ASD03090594
#	Creating user name:	WinNT
#	Creation time:	15. 06. 2019 20:29

#	Modifying user name:	WinNT
#	Modification time:	15. 06. 2019 20:29

#	Program:	/corina/corina34_cracker 3.40 0067  02.08.2006

@<TRIPOS>MOLECULE
ASD03090594
  26   27    0    0    0
SMALL
NO_CHARGES


@<TRIPOS>ATOM
   1 N1            -0.0162     1.3436     0.0094 N.am    
   2 C2             0.0561     0.0126     0.2091 C.2     
   3 O3             1.1401    -0.5294     0.3071 O.2     
   4 N4            -1.0731    -0.7175     0.3000 N.am    
   5 S5            -2.3347    -3.1540     0.6433 S.3     
   6 C6            -0.9985    -2.0908     0.5060 C.2     
   7 N7             0.0960    -2.7802     0.6254 N.2     
   8 N8            -0.0123    -4.0246     0.8087 N.2     
   9 C9            -1.2157    -4.5002     0.8608 C.2     
  10 C10           -1.5924    -5.9442     1.0700 C.3     
  11 F11           -0.4386    -6.6963     1.3157 F       
  12 F12           -2.4577    -6.0466     2.1646 F       
  13 F13           -2.2307    -6.4305    -0.0760 F       
  14 C14            1.1516     2.1165     0.0123 C.ar    
  15 C15            2.3302     1.5973    -0.5068 C.ar    
  16 C16            3.4813     2.3620    -0.5034 C.ar    
  17 C17            3.4592     3.6461     0.0178 C.ar    
  18 C18            2.2849     4.1646     0.5356 C.ar    
  19 C19            1.1310     3.4049     0.5290 C.ar    
  20 F20            4.5854     4.3924     0.0210 F       
  21 Cl21           4.9555     1.7138    -1.1516 Cl      
  22 H22           -0.8767     1.7655    -0.1402 H       
  23 H23           -1.9378    -0.2851     0.2218 H       
  24 H24            2.3473     0.5966    -0.9126 H       
  25 H25            2.2698     5.1652     0.9416 H       
  26 H26            0.2140     3.8118     0.9291 H       
@<TRIPOS>BOND
   1    1    2 am
   2    1   14 1
   3    1   22 1
   4    2    3 2
   5    2    4 am
   6    4    6 1
   7    4   23 1
   8    5    6 1
   9    5    9 1
  10    6    7 2
  11    7    8 1
  12    8    9 2
  13    9   10 1
  14   10   11 1
  15   10   12 1
  16   10   13 1
  17   14   15 ar
  18   14   19 ar
  19   15   16 ar
  20   15   24 1
  21   16   17 ar
  22   16   21 1
  23   17   18 ar
  24   17   20 1
  25   18   19 ar
  26   18   25 1
  27   19   26 1

#	End of record

