#	Name: ASD06620034
#	Creating user name:	WinNT
#	Creation time:	15. 06. 2019 21:07

#	Modifying user name:	WinNT
#	Modification time:	15. 06. 2019 21:07

#	Program:	/corina/corina34_cracker 3.40 0067  02.08.2006

@<TRIPOS>MOLECULE
ASD06620034
  38   42    0    0    0
SMALL
NO_CHARGES


@<TRIPOS>ATOM
   1 C1            -0.0167     1.3797     0.0096 C.ar    
   2 C2             0.0021    -0.0041     0.0020 C.ar    
   3 C3             1.2349    -0.6673    -0.0134 C.ar    
   4 C4             2.3975     0.0930    -0.0204 C.ar    
   5 C5             2.2923     1.4695    -0.0120 C.ar    
   6 N6             1.1127     2.0628     0.0025 N.ar    
   7 C7            -0.3747    -2.1918    -0.0061 C.2     
   8 N8            -0.9810    -0.9888     0.0062 N.am    
   9 N9             0.9622    -2.0260    -0.0180 N.am    
  10 O10           -0.9476    -3.2652    -0.0058 O.2     
  11 C11           -2.4275    -0.7571     0.0217 C.3     
  12 C12           -3.4621     0.1358    -3.3372 C.2     
  13 C13           -3.6966     0.9135    -4.4890 C.2     
  14 C14           -4.2630     0.3329    -5.5809 C.2     
  15 C15           -4.6053    -1.0290    -5.5461 C.2     
  16 C16           -4.3749    -1.7608    -4.4358 C.2     
  17 N17           -3.8070    -1.1909    -3.3333 N.pl3   
  18 N18           -2.9421     0.4281    -2.1535 N.2     
  19 C19           -2.9375    -0.6697    -1.3937 C.2     
  20 C20           -3.4703    -1.6881    -2.1038 C.2     
  21 C21            1.9586    -3.0999    -0.0341 C.3     
  22 C22            1.9537    -4.0857     1.1359 C.3     
  23 C23            1.4535    -4.5293    -0.2403 C.3     
  24 H24           -0.9610     1.9037     0.0169 H       
  25 H25            3.3663    -0.3842    -0.0319 H       
  26 H26            3.1894     2.0709    -0.0170 H       
  27 H27           -2.9220    -1.5813     0.5358 H       
  28 H28           -2.6404     0.1762     0.5429 H       
  29 H29           -3.4296     1.9599    -4.5043 H       
  30 H30           -4.4489     0.9164    -6.4705 H       
  31 H31           -5.0551    -1.4925    -6.4116 H       
  32 H32           -4.6422    -2.8070    -4.4196 H       
  33 H33           -3.6066    -2.7042    -1.7640 H       
  34 H34            2.9237    -2.8392    -0.4685 H       
  35 H35            2.9155    -4.4740     1.4710 H       
  36 H36            1.2091    -3.9353     1.9176 H       
  37 H37            0.3798    -4.6707    -0.3640 H       
  38 H38            2.0862    -5.2093    -0.8106 H       
@<TRIPOS>BOND
   1    1    2 ar
   2    1    6 ar
   3    1   24 1
   4    2    3 ar
   5    2    8 1
   6    3    4 ar
   7    3    9 1
   8    4    5 ar
   9    4   25 1
  10    5    6 ar
  11    5   26 1
  12    7    8 am
  13    7    9 am
  14    7   10 2
  15    8   11 1
  16    9   21 1
  17   11   19 1
  18   11   27 1
  19   11   28 1
  20   12   13 1
  21   12   17 1
  22   12   18 2
  23   13   14 2
  24   13   29 1
  25   14   15 1
  26   14   30 1
  27   15   16 2
  28   15   31 1
  29   16   17 1
  30   16   32 1
  31   17   20 1
  32   18   19 1
  33   19   20 2
  34   20   33 1
  35   21   22 1
  36   21   23 1
  37   21   34 1
  38   22   23 1
  39   22   35 1
  40   22   36 1
  41   23   37 1
  42   23   38 1

#	End of record

