#	Name: ASD01948275
#	Creating user name:	WinNT
#	Creation time:	15. 06. 2019 20:14

#	Modifying user name:	WinNT
#	Modification time:	15. 06. 2019 20:14

#	Program:	/corina/corina34_cracker 3.40 0067  02.08.2006

@<TRIPOS>MOLECULE
ASD01948275
  45   47    0    0    0
SMALL
NO_CHARGES


@<TRIPOS>ATOM
   1 C1             1.4479     5.5005    -0.8242 C.ar    
   2 C2             1.8409     5.5686    -2.1492 C.ar    
   3 C3             2.9142     4.8190    -2.5949 C.ar    
   4 C4             3.5984     3.9988    -1.7183 C.ar    
   5 C5             3.2083     3.9275    -0.3880 C.ar    
   6 C6             2.1283     4.6825     0.0584 C.ar    
   7 N7             4.6224     0.9837    -0.2989 N.am    
   8 C8             4.9042     2.2746     0.0380 C.2     
   9 N9             3.8991     3.0976     0.5016 N.pl3   
  10 C10            5.5874     0.1630    -0.7533 C.2     
  11 C11            6.9007     0.6213    -0.8884 C.2     
  12 C12            7.2063     1.9252    -0.5521 C.2     
  13 C13            6.1928     2.7631    -0.0822 C.2     
  14 N14            6.4804     4.0958     0.2663 N.am    
  15 I15            0.8071     6.8096    -3.4835 I       
  16 O16            5.3135    -0.9906    -1.0493 O.2     
  17 F17            1.7453     4.6165     1.3523 F       
  18 C18            3.2531     0.4820    -0.1587 C.3     
  19 S19            7.9882     4.7190    -0.0175 S.o2    
  20 O20            7.9343     6.0296     0.5290 O.2     
  21 O21            8.8759     3.7419     0.5084 O.2     
  22 C22            8.1164     4.7880    -1.8256 C.3     
  23 C23            7.9772    -0.3023    -1.3973 C.3     
  24 C24            9.3935     5.4831    -2.3265 C.3     
  25 C25            9.4644     4.3968    -3.4127 C.3     
  26 C26            8.6670     3.4969    -2.4539 C.3     
  27 H27            0.6119     6.0903    -0.4783 H       
  28 H28            3.2178     4.8744    -3.6298 H       
  29 H29            4.4360     3.4135    -2.0679 H       
  30 H30            3.6711     3.1010     1.4445 H       
  31 H31            8.2171     2.2925    -0.6513 H       
  32 H32            5.7954     4.6494     0.6728 H       
  33 H33            2.6813     0.7320    -1.0524 H       
  34 H34            3.2739    -0.6003    -0.0315 H       
  35 H35            2.7853     0.9413     0.7122 H       
  36 H36            7.2058     5.1526    -2.3009 H       
  37 H37            7.5466    -1.2815    -1.6070 H       
  38 H38            8.4067     0.1088    -2.3109 H       
  39 H39            8.7569    -0.4024    -0.6423 H       
  40 H40            9.2197     6.4843    -2.7209 H       
  41 H41           10.2190     5.4445    -1.6158 H       
  42 H42            8.9225     4.6534    -4.3229 H       
  43 H43           10.4756     4.0394    -3.6074 H       
  44 H44            9.2940     2.9153    -1.7781 H       
  45 H45            7.9067     2.8946    -2.9512 H       
@<TRIPOS>BOND
   1    1    2 ar
   2    1    6 ar
   3    1   27 1
   4    2    3 ar
   5    2   15 1
   6    3    4 ar
   7    3   28 1
   8    4    5 ar
   9    4   29 1
  10    5    6 ar
  11    5    9 1
  12    6   17 1
  13    7    8 1
  14    7   10 am
  15    7   18 1
  16    8    9 1
  17    8   13 2
  18    9   30 1
  19   10   11 1
  20   10   16 2
  21   11   12 2
  22   11   23 1
  23   12   13 1
  24   12   31 1
  25   13   14 1
  26   14   19 am
  27   14   32 1
  28   18   33 1
  29   18   34 1
  30   18   35 1
  31   19   20 2
  32   19   21 2
  33   19   22 1
  34   22   24 1
  35   22   26 1
  36   22   36 1
  37   23   37 1
  38   23   38 1
  39   23   39 1
  40   24   25 1
  41   24   40 1
  42   24   41 1
  43   25   26 1
  44   25   42 1
  45   25   43 1
  46   26   44 1
  47   26   45 1

#	End of record

