#	Name: ASD07000011
#	Creating user name:	WinNT
#	Creation time:	15. 06. 2019 21:08

#	Modifying user name:	WinNT
#	Modification time:	15. 06. 2019 21:08

#	Program:	/corina/corina34_cracker 3.40 0067  02.08.2006

@<TRIPOS>MOLECULE
ASD07000011
  33   35    0    0    0
SMALL
NO_CHARGES


@<TRIPOS>ATOM
   1 Cl1            1.2341    -2.4151    -0.0221 Cl      
   2 C2            -0.0167     1.3777     0.0096 C.ar    
   3 O3            -5.0262     4.1629     4.2820 O.3     
   4 C4            -5.8167     5.2497     4.4250 C.2     
   5 C5             0.0021    -0.0041     0.0020 C.ar    
   6 O6            -5.6890     5.9917     5.3813 O.2     
   7 C7            -6.8334     5.5142     3.3985 C.2     
   8 C8             1.2098    -0.6793    -0.0131 C.ar    
   9 C9            -6.5781     5.0531     2.1280 C.2     
  10 C10            2.3977     0.0294    -0.0206 C.ar    
  11 C11           -7.5357     5.2675     1.0230 C.2     
  12 O12           -7.2849     4.8512    -0.0831 O.2     
  13 C13           -4.8384     4.0751     0.6259 C.ar    
  14 C14            2.3777     1.4116    -0.0130 C.ar    
  15 C15           -3.6573     3.4125     0.4541 C.ar    
  16 C16            1.1710     2.0855     0.0021 C.ar    
  17 C17           -2.9151     2.9943     1.5573 C.ar    
  18 C18           -1.3319     2.1132     0.0198 C.3     
  19 O19           -1.7413     2.3384     1.3703 O.3     
  20 C20           -3.3660     3.2440     2.8432 C.ar    
  21 C21           -4.5647     3.9138     3.0336 C.ar    
  22 C22           -5.3075     4.3362     1.9162 C.ar    
  23 H23           -0.9257    -0.5569     0.0082 H       
  24 H24           -7.7431     6.0479     3.6314 H       
  25 H25            3.3407    -0.4970    -0.0321 H       
  26 H26           -8.4598     5.7964     1.2042 H       
  27 H27           -5.4087     4.3969    -0.2330 H       
  28 H28            3.3051     1.9651    -0.0185 H       
  29 H29           -3.2956     3.2107    -0.5434 H       
  30 H30            1.1559     3.1654     0.0080 H       
  31 H31           -1.2171     3.0701    -0.4894 H       
  32 H32           -2.0859     1.5166    -0.4937 H       
  33 H33           -2.7864     2.9172     3.6939 H       
@<TRIPOS>BOND
   1    1    8 1
   2    2    5 ar
   3    2   16 ar
   4    2   18 1
   5    3    4 1
   6    3   21 1
   7    4    6 2
   8    4    7 1
   9    5    8 ar
  10    5   23 1
  11    7    9 2
  12    7   24 1
  13    8   10 ar
  14    9   11 1
  15    9   22 1
  16   10   14 ar
  17   10   25 1
  18   11   12 2
  19   11   26 1
  20   13   15 ar
  21   13   22 ar
  22   13   27 1
  23   14   16 ar
  24   14   28 1
  25   15   17 ar
  26   15   29 1
  27   16   30 1
  28   17   19 1
  29   17   20 ar
  30   18   19 1
  31   18   31 1
  32   18   32 1
  33   20   21 ar
  34   20   33 1
  35   21   22 ar

#	End of record

