#	Name: ASD03092610
#	Creating user name:	WinNT
#	Creation time:	15. 06. 2019 20:32

#	Modifying user name:	WinNT
#	Modification time:	15. 06. 2019 20:32

#	Program:	/corina/corina34_cracker 3.40 0067  02.08.2006

@<TRIPOS>MOLECULE
ASD03092610
  35   37    0    0    0
SMALL
NO_CHARGES


@<TRIPOS>ATOM
   1 O1            -0.0143     1.2047     0.0087 O.3     
   2 N2             0.0021    -0.0041     0.0020 N.2     
   3 C3             1.2152    -0.4747    -0.0121 C.2     
   4 C4             2.0809     0.6416    -0.0144 C.2     
   5 C5             1.2318     1.7144    -0.0005 C.2     
   6 C6             1.6061     3.1413     0.0029 C.2     
   7 O7             2.7788     3.4622    -0.0070 O.2     
   8 N8             0.6481     4.0892     0.0168 N.am    
   9 C9             1.6179    -1.9268    -0.0230 C.3     
  10 C10            1.0198     5.5063     0.0202 C.3     
  11 N11           -3.6119     8.7068    -0.1907 N.pl3   
  12 C12           -3.6303     9.0031    -1.5271 C.2     
  13 C13           -2.5866     8.4221    -2.1388 C.2     
  14 C14           -1.8383     7.6941    -1.1105 C.ar    
  15 C15           -0.6835     6.9094    -1.1244 C.ar    
  16 C16           -0.2270     6.3526     0.0365 C.ar    
  17 C17           -0.9041     6.5604     1.2328 C.ar    
  18 C18           -2.0474     7.3315     1.2681 C.ar    
  19 C19           -2.5281     7.9077     0.0965 C.ar    
  20 C20           -2.7732     7.5487     2.5708 C.3     
  21 F21           -0.4384     6.0015     2.3712 F       
  22 H22            3.1608     0.6469    -0.0243 H       
  23 H23           -0.2875     3.8332     0.0247 H       
  24 H24            1.7054    -2.2719    -1.0532 H       
  25 H25            2.5774    -2.0416     0.4813 H       
  26 H26            0.8622    -2.5173     0.4950 H       
  27 H27            1.6176     5.7230     0.9055 H       
  28 H28            1.6003     5.7317    -0.8744 H       
  29 H29           -4.2631     9.0170     0.4579 H       
  30 H30           -4.3747     9.6136    -2.0167 H       
  31 H31           -2.3444     8.4796    -3.1897 H       
  32 H32           -0.1531     6.7426    -2.0503 H       
  33 H33           -2.3784     8.4376     3.0629 H       
  34 H34           -3.8371     7.6836     2.3759 H       
  35 H35           -2.6290     6.6820     3.2159 H       
@<TRIPOS>BOND
   1    1    2 1
   2    1    5 1
   3    2    3 2
   4    3    4 1
   5    3    9 1
   6    4    5 2
   7    4   22 1
   8    5    6 1
   9    6    7 2
  10    6    8 am
  11    8   10 1
  12    8   23 1
  13    9   24 1
  14    9   25 1
  15    9   26 1
  16   10   16 1
  17   10   27 1
  18   10   28 1
  19   11   12 1
  20   11   19 1
  21   11   29 1
  22   12   13 2
  23   12   30 1
  24   13   14 1
  25   13   31 1
  26   14   15 ar
  27   14   19 ar
  28   15   16 ar
  29   15   32 1
  30   16   17 ar
  31   17   18 ar
  32   17   21 1
  33   18   19 ar
  34   18   20 1
  35   20   33 1
  36   20   34 1
  37   20   35 1

#	End of record

