#	Name: ASD01328009
#	Creating user name:	WinNT
#	Creation time:	15. 06. 2019 19:16

#	Modifying user name:	WinNT
#	Modification time:	15. 06. 2019 19:16

#	Program:	/corina/corina34_cracker 3.40 0067  02.08.2006

@<TRIPOS>MOLECULE
ASD01328009
  45   46    0    0    0
SMALL
NO_CHARGES


@<TRIPOS>ATOM
   1 N1            -0.0162     1.3436     0.0094 N.am    
   2 C2             1.2424     2.0932     0.0014 C.3     
   3 C3             1.0682     3.3747    -0.8179 C.3     
   4 O4             0.7634     3.0375    -2.1727 O.3     
   5 C5             2.3692     4.1819    -0.7716 C.3     
   6 O6             2.1922     5.4145    -1.4726 O.3     
   7 C7             2.7264     4.4703     0.6898 C.3     
   8 O8             3.9763     5.1605     0.7486 O.3     
   9 C9             2.8366     3.1466     1.4509 C.3     
  10 O10            1.6039     2.4319     1.3419 O.3     
  11 C11            3.1341     3.4288     2.9249 C.3     
  12 O12            3.3520     2.1947     3.6116 O.3     
  13 C13            0.0021    -0.0041     0.0020 C.2     
  14 S14            1.4961    -0.8398    -0.0167 S.2     
  15 N15           -2.3785    -0.0099     0.0247 N.2     
  16 N16           -1.1558    -0.6938     0.0094 N.am    
  17 C17           -3.4933    -0.6739     0.0318 C.2     
  18 C18           -4.7803     0.0461     0.0479 C.ar    
  19 C19           -5.9824    -0.6655     0.0556 C.ar    
  20 C20           -7.1824     0.0144     0.0712 C.ar    
  21 C21           -7.1973     1.3980     0.0788 C.ar    
  22 C22           -6.0105     2.1094     0.0713 C.ar    
  23 C23           -4.8030     1.4427     0.0615 C.ar    
  24 C24           -8.5124     2.1337     0.0948 C.3     
  25 F25           -8.9073     2.3542     1.4187 F       
  26 F26           -8.3678     3.3618    -0.5594 F       
  27 F27           -9.4831     1.3680    -0.5599 F       
  28 H28           -0.8627     1.8170     0.0241 H       
  29 H29            2.0273     1.4814    -0.4432 H       
  30 H30            0.2554     3.9676    -0.3984 H       
  31 H31           -0.0472     2.5206    -2.2765 H       
  32 H32            3.1706     3.6089    -1.2379 H       
  33 H33            1.9571     5.3067    -2.4044 H       
  34 H34            1.9484     5.0868     1.1401 H       
  35 H35            3.9804     6.0073     0.2819 H       
  36 H36            3.6423     2.5485     1.0253 H       
  37 H37            4.0260     4.0504     3.0030 H       
  38 H38            2.2879     3.9495     3.3732 H       
  39 H39            3.5466     2.2975     4.5532 H       
  40 H40           -1.1427    -1.6637     0.0040 H       
  41 H41           -3.4786    -1.7538     0.0259 H       
  42 H42           -5.9722    -1.7454     0.0490 H       
  43 H43           -8.1125    -0.5344     0.0771 H       
  44 H44           -6.0296     3.1892     0.0773 H       
  45 H45           -3.8774     1.9991     0.0602 H       
@<TRIPOS>BOND
   1    1   13 am
   2    1    2 1
   3    1   28 1
   4    2    3 1
   5    2   10 1
   6    2   29 1
   7    3    4 1
   8    3    5 1
   9    3   30 1
  10    4   31 1
  11    5    6 1
  12    5    7 1
  13    5   32 1
  14    6   33 1
  15    7    8 1
  16    7    9 1
  17    7   34 1
  18    8   35 1
  19    9   10 1
  20    9   11 1
  21    9   36 1
  22   11   12 1
  23   11   37 1
  24   11   38 1
  25   12   39 1
  26   13   14 2
  27   13   16 am
  28   15   16 1
  29   15   17 2
  30   16   40 1
  31   17   18 1
  32   17   41 1
  33   18   19 ar
  34   18   23 ar
  35   19   20 ar
  36   19   42 1
  37   20   21 ar
  38   20   43 1
  39   21   22 ar
  40   21   24 1
  41   22   23 ar
  42   22   44 1
  43   23   45 1
  44   24   25 1
  45   24   26 1
  46   24   27 1

#	End of record

