#	Name: ASD01910825
#	Creating user name:	WinNT
#	Creation time:	15. 06. 2019 19:56

#	Modifying user name:	WinNT
#	Modification time:	15. 06. 2019 19:56

#	Program:	/corina/corina34_cracker 3.40 0067  02.08.2006

@<TRIPOS>MOLECULE
ASD01910825
  51   54    0    0    0
SMALL
NO_CHARGES


@<TRIPOS>ATOM
   1 C1             0.0599     1.7640    -0.3714 C.ar    
   2 C2             0.0023     0.3771    -0.4016 C.ar    
   3 C3             1.1881    -0.3341    -0.3559 C.ar    
   4 C4             2.3909     0.3604    -0.2817 C.ar    
   5 N5             2.4042     1.6843    -0.2545 N.ar    
   6 C6             1.2891     2.3883    -0.2972 C.ar    
   7 N7             3.5899    -0.3415    -0.2352 N.3     
   8 C8             4.7345     0.5761    -0.1594 C.3     
   9 C9             6.0169    -0.2303     0.0720 C.3     
  10 N10            6.1148    -1.2620    -0.9716 N.am    
  11 C11            4.9521    -2.1332    -1.2001 C.3     
  12 C12            3.7117    -1.2520    -1.3815 C.3     
  13 C13            7.2404    -1.4055    -1.6989 C.2     
  14 C14            7.3645    -2.5262    -2.6556 C.ar    
  15 O15            8.1534    -0.6138    -1.5685 O.2     
  16 C16            7.9775    -2.3242    -3.8942 C.ar    
  17 C17            8.0943    -3.3691    -4.7899 C.ar    
  18 C18            7.6070    -4.6198    -4.4687 C.ar    
  19 C19            6.9909    -4.8368    -3.2321 C.ar    
  20 C20            6.8755    -3.7870    -2.3210 C.ar    
  21 C21            6.4847    -6.1345    -2.9000 C.1     
  22 C22            6.0697    -7.1985    -2.6278 C.1     
  23 C23            5.5636    -8.4962    -2.2957 C.ar    
  24 N24            4.9790    -8.6953    -1.1182 N.ar    
  25 C25            4.5010    -9.8740    -0.7760 C.ar    
  26 C26            4.5906   -10.9541    -1.6350 C.ar    
  27 C27            5.1934   -10.7915    -2.8753 C.ar    
  28 C28            5.6825    -9.5430    -3.2138 C.ar    
  29 C29            1.3580     3.8934    -0.2635 C.3     
  30 H30           -0.8474     2.3485    -0.4100 H       
  31 H31           -0.9468    -0.1350    -0.4591 H       
  32 H32            1.1799    -1.4138    -0.3773 H       
  33 H33            4.8178     1.1316    -1.0936 H       
  34 H34            4.5886     1.2723     0.6664 H       
  35 H35            6.8810     0.4317     0.0148 H       
  36 H36            5.9794    -0.7041     1.0530 H       
  37 H37            5.1122    -2.7294    -2.0984 H       
  38 H38            4.8123    -2.7900    -0.3415 H       
  39 H39            2.8239    -1.8815    -1.4420 H       
  40 H40            3.8092    -0.6710    -2.2986 H       
  41 H41            8.3608    -1.3481    -4.1526 H       
  42 H42            8.5689    -3.2066    -5.7463 H       
  43 H43            7.7014    -5.4324    -5.1738 H       
  44 H44            6.4007    -3.9484    -1.3645 H       
  45 H45            4.0328    -9.9987     0.1892 H       
  46 H46            4.1954   -11.9159    -1.3434 H       
  47 H47            5.2750   -11.6209    -3.5622 H       
  48 H48            6.1568    -9.3814    -4.1705 H       
  49 H49            1.4268     4.2768    -1.2815 H       
  50 H50            0.4605     4.2876     0.2133 H       
  51 H51            2.2363     4.2043     0.3020 H       
@<TRIPOS>BOND
   1    1    2 ar
   2    1    6 ar
   3    1   30 1
   4    2    3 ar
   5    2   31 1
   6    3    4 ar
   7    3   32 1
   8    4    5 ar
   9    4    7 1
  10    5    6 ar
  11    6   29 1
  12    7    8 1
  13    7   12 1
  14    8    9 1
  15    8   33 1
  16    8   34 1
  17    9   10 1
  18    9   35 1
  19    9   36 1
  20   10   11 1
  21   10   13 am
  22   11   12 1
  23   11   37 1
  24   11   38 1
  25   12   39 1
  26   12   40 1
  27   13   14 1
  28   13   15 2
  29   14   16 ar
  30   14   20 ar
  31   16   17 ar
  32   16   41 1
  33   17   18 ar
  34   17   42 1
  35   18   19 ar
  36   18   43 1
  37   19   20 ar
  38   19   21 1
  39   20   44 1
  40   21   22 3
  41   22   23 1
  42   23   24 ar
  43   23   28 ar
  44   24   25 ar
  45   25   26 ar
  46   25   45 1
  47   26   27 ar
  48   26   46 1
  49   27   28 ar
  50   27   47 1
  51   28   48 1
  52   29   49 1
  53   29   50 1
  54   29   51 1

#	End of record

