#	Name: ASD08150068
#	Creating user name:	WinNT
#	Creation time:	15. 06. 2019 21:15

#	Modifying user name:	WinNT
#	Modification time:	15. 06. 2019 21:15

#	Program:	/corina/corina34_cracker 3.40 0067  02.08.2006

@<TRIPOS>MOLECULE
ASD08150068
  80   84    0    0    0
SMALL
NO_CHARGES


@<TRIPOS>ATOM
   1 O1             0.8512     2.0515    -1.2983 O.3     
   2 C2             1.3072     0.8467    -1.6585 C.2     
   3 N3             2.6040     0.8368    -1.9961 N.am    
   4 C4             3.1414     2.1994    -1.8612 C.3     
   5 C5             1.9319     3.0251    -1.3822 C.3     
   6 O6             0.6096    -0.1477    -1.6776 O.2     
   7 C7             3.6435     2.7152    -3.2113 C.3     
   8 C8             5.3224    -1.2563    -3.0133 C.ar    
   9 N9             4.6324    -0.1951    -2.6226 N.ar    
  10 C10            3.3241    -0.2794    -2.4065 C.ar    
  11 C11            2.6836    -1.5035    -2.5967 C.ar    
  12 C12            3.4401    -2.5878    -3.0052 C.ar    
  13 N13            4.7419    -2.4319    -3.2022 N.ar    
  14 O14            9.3990    -1.6890    -2.7879 O.3     
  15 C15            8.7564    -2.2169    -3.9514 C.3     
  16 C16            7.2662    -2.4129    -3.6602 C.3     
  17 N17            6.6828    -1.1322    -3.2350 N.3     
  18 C18            7.3669    -0.6196    -2.0390 C.3     
  19 C19            8.8561    -0.4417    -2.3464 C.3     
  20 Cl20           2.6933    -4.1347    -3.2563 Cl      
  21 C21            1.5920     4.1175    -2.3980 C.3     
  22 C22            0.4152     4.9471    -1.8804 C.3     
  23 C23            0.0935     6.0570    -2.8831 C.3     
  24 O24           -0.7275     4.1043    -1.7197 O.3     
  25 Si25          -1.8017     4.6461    -0.6184 Si      
  26 C26           -2.1055     6.4692    -0.8893 C.ar    
  27 C27           -3.3417     6.9064    -1.3268 C.ar    
  28 C28           -3.5665     8.2556    -1.5273 C.ar    
  29 C29           -2.5551     9.1675    -1.2899 C.ar    
  30 C30           -1.3191     8.7304    -0.8515 C.ar    
  31 C31           -1.0957     7.3816    -0.6469 C.ar    
  32 C32           -3.4090     3.7126    -0.8048 C.ar    
  33 C33           -4.2899     4.0482    -1.8159 C.ar    
  34 C34           -5.4794     3.3575    -1.9538 C.ar    
  35 C35           -5.7877     2.3309    -1.0810 C.ar    
  36 C36           -4.9064     1.9947    -0.0704 C.ar    
  37 C37           -3.7150     2.6826     0.0648 C.ar    
  38 C38           -1.1229     4.3776     1.0956 C.3     
  39 C39           -0.0871     5.4591     1.4091 C.3     
  40 C40           -2.2629     4.4528     2.1132 C.3     
  41 C41           -0.4611     3.0002     1.1720 C.3     
  42 H42            3.9399     2.2243    -1.1197 H       
  43 H43            2.1304     3.4609    -0.4030 H       
  44 H44            2.8252     2.7050    -3.9313 H       
  45 H45            4.0136     3.7340    -3.0962 H       
  46 H46            4.4495     2.0741    -3.5683 H       
  47 H47            1.6214    -1.6031    -2.4287 H       
  48 H48            8.8766    -1.5205    -4.7812 H       
  49 H49            9.2055    -3.1754    -4.2118 H       
  50 H50            6.7620    -2.7611    -4.5616 H       
  51 H51            7.1443    -3.1498    -2.8664 H       
  52 H52            6.9362     0.3411    -1.7569 H       
  53 H53            7.2466    -1.3279    -1.2192 H       
  54 H54            9.3773    -0.1162    -1.4461 H       
  55 H55            8.9792     0.3064    -3.1295 H       
  56 H56            2.4580     4.7641    -2.5397 H       
  57 H57            1.3222     3.6581    -3.3490 H       
  58 H58            0.6778     5.3902    -0.9197 H       
  59 H59           -0.0030     5.6286    -3.8807 H       
  60 H60           -0.8428     6.5396    -2.6028 H       
  61 H61            0.8970     6.7935    -2.8801 H       
  62 H62           -4.1319     6.1939    -1.5123 H       
  63 H63           -4.5321     8.5971    -1.8698 H       
  64 H64           -2.7304    10.2215    -1.4472 H       
  65 H65           -0.5288     9.4428    -0.6664 H       
  66 H66           -0.1312     7.0404    -0.3009 H       
  67 H67           -4.0491     4.8503    -2.4979 H       
  68 H68           -6.1679     3.6201    -2.7433 H       
  69 H69           -6.7173     1.7917    -1.1883 H       
  70 H70           -5.1474     1.1928     0.6117 H       
  71 H71           -3.0247     2.4175     0.8520 H       
  72 H72           -0.5277     6.4425     1.2454 H       
  73 H73            0.2275     5.3704     2.4489 H       
  74 H74            0.7769     5.3349     0.7563 H       
  75 H75           -3.0354     3.7313     1.8475 H       
  76 H76           -1.8783     4.2240     3.1071 H       
  77 H77           -2.6870     5.4569     2.1101 H       
  78 H78            0.4329     2.9915     0.5485 H       
  79 H79           -0.1859     2.7861     2.2048 H       
  80 H80           -1.1589     2.2417     0.8172 H       
@<TRIPOS>BOND
   1    1    2 1
   2    1    5 1
   3    2    3 am
   4    2    6 2
   5    3    4 1
   6    3   10 1
   7    4    5 1
   8    4    7 1
   9    4   42 1
  10    5   21 1
  11    5   43 1
  12    7   44 1
  13    7   45 1
  14    7   46 1
  15    8    9 ar
  16    8   13 ar
  17    8   17 1
  18    9   10 ar
  19   10   11 ar
  20   11   12 ar
  21   11   47 1
  22   12   13 ar
  23   12   20 1
  24   14   15 1
  25   14   19 1
  26   15   16 1
  27   15   48 1
  28   15   49 1
  29   16   17 1
  30   16   50 1
  31   16   51 1
  32   17   18 1
  33   18   19 1
  34   18   52 1
  35   18   53 1
  36   19   54 1
  37   19   55 1
  38   21   22 1
  39   21   56 1
  40   21   57 1
  41   22   23 1
  42   22   24 1
  43   22   58 1
  44   23   59 1
  45   23   60 1
  46   23   61 1
  47   24   25 1
  48   25   26 1
  49   25   32 1
  50   25   38 1
  51   26   27 ar
  52   26   31 ar
  53   27   28 ar
  54   27   62 1
  55   28   29 ar
  56   28   63 1
  57   29   30 ar
  58   29   64 1
  59   30   31 ar
  60   30   65 1
  61   31   66 1
  62   32   33 ar
  63   32   37 ar
  64   33   34 ar
  65   33   67 1
  66   34   35 ar
  67   34   68 1
  68   35   36 ar
  69   35   69 1
  70   36   37 ar
  71   36   70 1
  72   37   71 1
  73   38   39 1
  74   38   41 1
  75   38   40 1
  76   39   72 1
  77   39   73 1
  78   39   74 1
  79   40   75 1
  80   40   76 1
  81   40   77 1
  82   41   78 1
  83   41   79 1
  84   41   80 1

#	End of record

