#	Name: ASD01913123
#	Creating user name:	WinNT
#	Creation time:	15. 06. 2019 20:01

#	Modifying user name:	WinNT
#	Modification time:	15. 06. 2019 20:01

#	Program:	/corina/corina34_cracker 3.40 0067  02.08.2006

@<TRIPOS>MOLECULE
ASD01913123
  44   47    0    0    0
SMALL
NO_CHARGES


@<TRIPOS>ATOM
   1 C1            -0.8043     1.9742     1.1345 C.ar    
   2 C2            -0.8250     0.5476     0.7314 C.2     
   3 N3            -1.8530    -0.3229     0.9027 N.2     
   4 C4            -1.4996    -1.4796     0.4238 C.2     
   5 O5            -0.2543    -1.3916    -0.0626 O.3     
   6 C6             0.1770    -0.1296     0.1177 C.2     
   7 C7            -2.3543    -2.7207     0.4174 C.3     
   8 C8            -2.5716    -3.1839    -1.0249 C.3     
   9 C9            -3.4666    -4.4253    -1.0344 C.3     
  10 C10           -2.7756    -5.5541    -0.2630 C.3     
  11 N11           -2.4326    -5.0678     1.0803 N.am    
  12 C12           -1.6507    -3.8302     1.2053 C.3     
  13 C13           -2.8277    -5.7442     2.1771 C.2     
  14 C14           -3.6837    -6.9402     2.0388 C.ar    
  15 O15           -2.4796    -5.3700     3.2802 O.2     
  16 N16            0.2765     2.7081     0.9021 N.ar    
  17 C17            0.3348     3.9796     1.2445 C.ar    
  18 C18           -0.7355     4.5978     1.8626 C.ar    
  19 C19           -1.8862     3.8664     2.1244 C.ar    
  20 C20           -1.9225     2.5353     1.7493 C.ar    
  21 C21           -3.3276    -7.9580     1.1514 C.ar    
  22 C22           -4.1296    -9.0720     1.0267 C.ar    
  23 C23           -5.2882    -9.1832     1.7803 C.ar    
  24 C24           -5.6466    -8.1754     2.6626 C.ar    
  25 C25           -4.8488    -7.0597     2.7993 C.ar    
  26 F26           -6.0707   -10.2772     1.6542 F       
  27 H27            1.1407     0.2668    -0.1661 H       
  28 H28           -3.3175    -2.5014     0.8781 H       
  29 H29           -3.0500    -2.3869    -1.5941 H       
  30 H30           -1.6100    -3.4261    -1.4773 H       
  31 H31           -4.4194    -4.1905    -0.5599 H       
  32 H32           -3.6401    -4.7409    -2.0633 H       
  33 H33           -3.4494    -6.4070    -0.1819 H       
  34 H34           -1.8673    -5.8519    -0.7868 H       
  35 H35           -0.6506    -3.9874     0.8013 H       
  36 H36           -1.5823    -3.5457     2.2553 H       
  37 H37            1.2312     4.5459     1.0395 H       
  38 H38           -0.6773     5.6400     2.1397 H       
  39 H39           -2.7356     4.3275     2.6064 H       
  40 H40           -2.8018     1.9371     1.9375 H       
  41 H41           -2.4256    -7.8722     0.5637 H       
  42 H42           -3.8554    -9.8595     0.3404 H       
  43 H43           -6.5503    -8.2668     3.2470 H       
  44 H44           -5.1288    -6.2754     3.4871 H       
@<TRIPOS>BOND
   1    1    2 1
   2    1   16 ar
   3    1   20 ar
   4    2    3 1
   5    2    6 2
   6    3    4 2
   7    4    5 1
   8    4    7 1
   9    5    6 1
  10    6   27 1
  11    7    8 1
  12    7   12 1
  13    7   28 1
  14    8    9 1
  15    8   29 1
  16    8   30 1
  17    9   10 1
  18    9   31 1
  19    9   32 1
  20   10   11 1
  21   10   33 1
  22   10   34 1
  23   11   12 1
  24   11   13 am
  25   12   35 1
  26   12   36 1
  27   13   14 1
  28   13   15 2
  29   14   21 ar
  30   14   25 ar
  31   16   17 ar
  32   17   18 ar
  33   17   37 1
  34   18   19 ar
  35   18   38 1
  36   19   20 ar
  37   19   39 1
  38   20   40 1
  39   21   22 ar
  40   21   41 1
  41   22   23 ar
  42   22   42 1
  43   23   24 ar
  44   23   26 1
  45   24   25 ar
  46   24   43 1
  47   25   44 1

#	End of record

