#	Name: ASD01208065
#	Creating user name:	WinNT
#	Creation time:	15. 06. 2019 19:09

#	Modifying user name:	WinNT
#	Modification time:	15. 06. 2019 19:09

#	Program:	/corina/corina34_cracker 3.40 0067  02.08.2006

@<TRIPOS>MOLECULE
ASD01208065
  56   59    0    0    0
SMALL
NO_CHARGES


@<TRIPOS>ATOM
   1 C1            -0.0841     1.4355     0.0233 C.ar    
   2 C2             0.0196     0.0527    -0.0174 C.ar    
   3 C3            -1.1228    -0.7345     0.0250 C.ar    
   4 C4            -2.3717    -0.1419     0.1085 C.ar    
   5 C5            -2.4805     1.2491     0.1502 C.ar    
   6 C6            -1.3289     2.0365     0.1122 C.ar    
   7 C7            -3.8108     1.8860     0.2388 C.2     
   8 C8            -4.0517     3.2289     0.2859 C.2     
   9 N9            -5.0129     1.2289     0.2818 N.pl3   
  10 C10           -6.0172     2.1626     0.3619 C.2     
  11 C11           -5.4350     3.4113     0.3655 C.2     
  12 O12            1.0377     2.2016    -0.0184 O.3     
  13 C13            0.8545     3.6165    -0.0983 C.3     
  14 C14            2.0870     4.2548    -0.7422 C.3     
  15 O15            3.2197     4.0677     0.1087 O.3     
  16 C16            0.6614     4.1860     1.3085 C.3     
  17 O17           -1.0157    -2.0885    -0.0161 O.3     
  18 C18           -1.4853    -2.7326    -1.1168 C.ar    
  19 C19           -1.5166    -4.1192    -1.1610 C.ar    
  20 C20           -1.9469    -2.0112    -2.2132 C.ar    
  21 C21           -2.4161    -2.7123    -3.3125 C.ar    
  22 C22           -2.4104    -4.0942    -3.2843 C.ar    
  23 N23           -1.9712    -4.7480    -2.2265 N.ar    
  24 C24           -7.4589     1.8796     0.4280 C.2     
  25 C25            4.4299     4.6297    -0.4028 C.3     
  26 N26           -8.4043     2.7762     0.5039 N.2     
  27 C27           -9.6403     2.3355     0.5539 C.2     
  28 C28           -9.7879     1.0071     0.5208 C.2     
  29 S29           -8.1882     0.2760     0.4097 S.3     
  30 S30           -3.0056    -4.9943    -4.6771 S.o2    
  31 C31           -1.5415    -5.2329    -5.7212 C.3     
  32 O32           -3.4382    -6.2342    -4.1342 O.2     
  33 O33           -3.9239    -4.1075    -5.3012 O.2     
  34 H34            0.9920    -0.4126    -0.0825 H       
  35 H35           -3.2602    -0.7550     0.1411 H       
  36 H36           -1.4085     3.1130     0.1445 H       
  37 H37           -3.3066     4.0105     0.2660 H       
  38 H38           -5.1340     0.2667     0.2591 H       
  39 H39           -5.9527     4.3576     0.4199 H       
  40 H40           -0.0257     3.8353    -0.7029 H       
  41 H41            2.2764     3.7859    -1.7078 H       
  42 H42            1.9115     5.3212    -0.8843 H       
  43 H43            1.5416     3.9672     1.9131 H       
  44 H44            0.5217     5.2653     1.2476 H       
  45 H45           -0.2166     3.7313     1.7672 H       
  46 H46           -1.1645    -4.6891    -0.3138 H       
  47 H47           -1.9400    -0.9312    -2.2075 H       
  48 H48           -2.7823    -2.1851    -4.1810 H       
  49 H49            4.6680     4.1686    -1.3613 H       
  50 H50            4.3030     5.7039    -0.5379 H       
  51 H51            5.2418     4.4454     0.3007 H       
  52 H52          -10.4854     3.0049     0.6181 H       
  53 H53          -10.7266     0.4738     0.5527 H       
  54 H54           -0.7874    -5.7920    -5.1673 H       
  55 H55           -1.8204    -5.7880    -6.6168 H       
  56 H56           -1.1368    -4.2619    -6.0069 H       
@<TRIPOS>BOND
   1    1    2 ar
   2    1   12 1
   3    1    6 ar
   4    2    3 ar
   5    2   34 1
   6    3    4 ar
   7    3   17 1
   8    4    5 ar
   9    4   35 1
  10    5    6 ar
  11    5    7 1
  12    6   36 1
  13    7    8 2
  14    7    9 1
  15    8   11 1
  16    8   37 1
  17    9   10 1
  18    9   38 1
  19   10   11 2
  20   10   24 1
  21   11   39 1
  22   12   13 1
  23   13   14 1
  24   13   16 1
  25   13   40 1
  26   14   15 1
  27   14   41 1
  28   14   42 1
  29   15   25 1
  30   16   43 1
  31   16   44 1
  32   16   45 1
  33   17   18 1
  34   18   19 ar
  35   18   20 ar
  36   19   23 ar
  37   19   46 1
  38   20   21 ar
  39   20   47 1
  40   21   22 ar
  41   21   48 1
  42   22   23 ar
  43   22   30 1
  44   24   26 2
  45   24   29 1
  46   25   49 1
  47   25   50 1
  48   25   51 1
  49   26   27 1
  50   27   28 2
  51   27   52 1
  52   28   29 1
  53   28   53 1
  54   30   31 1
  55   30   32 2
  56   30   33 2
  57   31   54 1
  58   31   55 1
  59   31   56 1

#	End of record

