#	Name: ASD01810371
#	Creating user name:	WinNT
#	Creation time:	15. 06. 2019 19:24

#	Modifying user name:	WinNT
#	Modification time:	15. 06. 2019 19:24

#	Program:	/corina/corina34_cracker 3.40 0067  02.08.2006

@<TRIPOS>MOLECULE
ASD01810371
  57   61    0    0    0
SMALL
NO_CHARGES


@<TRIPOS>ATOM
   1 C1            -0.0167     1.3836     0.0096 C.ar    
   2 C2             0.0021    -0.0041     0.0020 C.ar    
   3 C3             1.1955    -0.6917    -0.0130 C.ar    
   4 C4             2.4007     0.0063    -0.0207 C.ar    
   5 C5             2.3789     1.4112    -0.0130 C.ar    
   6 C6             1.1628     2.0943     0.0022 C.ar    
   7 N7             3.6012    -0.6701    -0.0353 N.pl3   
   8 C8             4.7860    -0.0459    -0.0424 C.2     
   9 C9             4.8923     1.3302    -0.0360 C.2     
  10 C10            3.6621     2.1382    -0.0214 C.2     
  11 O11            3.7021     3.3560    -0.0156 O.2     
  12 C12            6.2117     1.9779    -0.0431 C.2     
  13 C13            3.5805    -2.1349    -0.0429 C.3     
  14 C14            3.5604    -2.6296    -1.4663 C.ar    
  15 C15            4.7505    -2.8727    -2.1281 C.ar    
  16 C16            4.7380    -3.3263    -3.4315 C.ar    
  17 C17            3.5235    -3.5393    -4.0808 C.ar    
  18 C18            2.3276    -3.2927    -3.4092 C.ar    
  19 C19            2.3519    -2.8443    -2.1041 C.ar    
  20 C20            3.5037    -4.0263    -5.4820 C.ar    
  21 O21            7.2212     1.3007    -0.0548 O.2     
  22 O22            6.3024     3.3229    -0.0368 O.3     
  23 C23            2.2882    -4.2426    -6.1407 C.ar    
  24 C24            2.3193    -4.6963    -7.4447 C.ar    
  25 C25            3.5490    -4.9220    -8.0565 C.ar    
  26 N26            4.6819    -4.7072    -7.4044 N.ar    
  27 C27            4.6942    -4.2690    -6.1616 C.ar    
  28 N28            3.5888    -5.3790    -9.3678 N.3     
  29 C29            4.9752    -5.5519    -9.8234 C.3     
  30 C30            2.8522    -4.4757   -10.2628 C.3     
  31 C31            2.8523    -5.0540   -11.6799 C.3     
  32 N32            4.2387    -5.2269   -12.1355 N.3     
  33 C33            4.9753    -6.1302   -11.2405 C.3     
  34 H34           -0.9606     1.9085     0.0170 H       
  35 H35           -0.9293    -0.5508     0.0083 H       
  36 H36            1.1967    -1.7717    -0.0185 H       
  37 H37            1.1465     3.1742     0.0078 H       
  38 H38            5.6884    -0.6392    -0.0530 H       
  39 H39            4.4699    -2.5135     0.4608 H       
  40 H40            2.6902    -2.4884     0.4772 H       
  41 H41            5.6911    -2.7070    -1.6241 H       
  42 H42            5.6678    -3.5154    -3.9475 H       
  43 H43            1.3836    -3.4562    -3.9076 H       
  44 H44            1.4257    -2.6529    -1.5827 H       
  45 H45            7.1916     3.7029    -0.0419 H       
  46 H46            1.3483    -4.0593    -5.6412 H       
  47 H47            1.4003    -4.8743    -7.9832 H       
  48 H48            5.6376    -4.1050    -5.6620 H       
  49 H49            5.4807    -4.5862    -9.8248 H       
  50 H50            5.4962    -6.2345    -9.1520 H       
  51 H51            1.8253    -4.3736    -9.9118 H       
  52 H52            3.3335    -3.4977   -10.2692 H       
  53 H53            2.3468    -6.0197   -11.6785 H       
  54 H54            2.3313    -4.3714   -12.3513 H       
  55 H55            4.2676    -5.5588   -13.0879 H       
  56 H56            6.0022    -6.2323   -11.5915 H       
  57 H57            4.4940    -7.1082   -11.2341 H       
@<TRIPOS>BOND
   1    1    2 ar
   2    1    6 ar
   3    1   34 1
   4    2    3 ar
   5    2   35 1
   6    3    4 ar
   7    3   36 1
   8    4    5 ar
   9    4    7 1
  10    5    6 ar
  11    5   10 1
  12    6   37 1
  13    7    8 1
  14    7   13 1
  15    8    9 2
  16    8   38 1
  17    9   10 1
  18    9   12 1
  19   10   11 2
  20   12   21 2
  21   12   22 1
  22   13   14 1
  23   13   39 1
  24   13   40 1
  25   14   15 ar
  26   14   19 ar
  27   15   16 ar
  28   15   41 1
  29   16   17 ar
  30   16   42 1
  31   17   18 ar
  32   17   20 1
  33   18   19 ar
  34   18   43 1
  35   19   44 1
  36   20   23 ar
  37   20   27 ar
  38   22   45 1
  39   23   24 ar
  40   23   46 1
  41   24   25 ar
  42   24   47 1
  43   25   26 ar
  44   25   28 1
  45   26   27 ar
  46   27   48 1
  47   28   29 1
  48   28   30 1
  49   29   33 1
  50   29   49 1
  51   29   50 1
  52   30   31 1
  53   30   51 1
  54   30   52 1
  55   31   32 1
  56   31   53 1
  57   31   54 1
  58   32   33 1
  59   32   55 1
  60   33   56 1
  61   33   57 1

#	End of record

