#	Name: ASD02198761
#	Creating user name:	WinNT
#	Creation time:	15. 06. 2019 20:20

#	Modifying user name:	WinNT
#	Modification time:	15. 06. 2019 20:20

#	Program:	/corina/corina34_cracker 3.40 0067  02.08.2006

@<TRIPOS>MOLECULE
ASD02198761
  46   50    0    0    0
SMALL
NO_CHARGES


@<TRIPOS>ATOM
   1 F1             2.2530    -1.7111     2.4723 F       
   2 C2            -0.0433     1.5018    -0.1149 C.2     
   3 C3            -0.0730     0.1620     0.0976 C.2     
   4 N4             1.0713    -0.5395     0.2604 N.pl3   
   5 N5             2.2358    -0.0047     0.2264 N.2     
   6 C6             2.4072     1.2848     0.0277 C.2     
   7 C7             1.2215     2.1358    -0.1604 C.2     
   8 C8             0.9798    -1.9187     0.4775 C.ar    
   9 C9             1.5805    -2.4888     1.5959 C.ar    
  10 C10            1.4888    -3.8512     1.8091 C.ar    
  11 C11            0.7976    -4.6498     0.9074 C.ar    
  12 C12            0.1982    -4.0797    -0.2091 C.ar    
  13 C13            0.2844    -2.7189    -0.4205 C.ar    
  14 C14            3.7642     1.8671    -0.0054 C.2     
  15 N15            4.3058     2.6068    -1.0189 N.pl3   
  16 N16            5.6080     2.9582    -0.6417 N.2     
  17 C17            5.8522     2.4587     0.5435 C.2     
  18 C18            4.7202     1.7717     0.9820 C.2     
  19 C19            3.6723     2.9515    -2.2196 C.ar    
  20 C20            3.8061     4.2346    -2.7335 C.ar    
  21 C21            3.1802     4.5713    -3.9177 C.ar    
  22 C22            2.4209     3.6323    -4.5915 C.ar    
  23 C23            2.2853     2.3539    -4.0821 C.ar    
  24 C24            2.9138     2.0091    -2.9015 C.ar    
  25 O25            1.3244     3.3389    -0.3486 O.2     
  26 N26            0.7052    -6.0292     1.1230 N.am    
  27 C27            0.0787    -7.1425     0.4087 C.3     
  28 C28            0.5774    -8.1239     1.4696 C.3     
  29 C29            1.1613    -6.8719     2.0683 C.2     
  30 O30            1.8191    -6.6846     3.0700 O.2     
  31 H31           -0.9547     2.0653    -0.2494 H       
  32 H32           -1.0228    -0.3505     0.1376 H       
  33 H33            1.9549    -4.2947     2.6766 H       
  34 H34           -0.3388    -4.7017    -0.9099 H       
  35 H35           -0.1822    -2.2768    -1.2884 H       
  36 H36            6.7760     2.5646     1.0929 H       
  37 H37            4.6146     1.2525     1.9231 H       
  38 H38            4.3987     4.9685    -2.2076 H       
  39 H39            3.2835     5.5692    -4.3178 H       
  40 H40            1.9324     3.8980    -5.5173 H       
  41 H41            1.6911     1.6229    -4.6103 H       
  42 H42            2.8076     1.0105    -2.5042 H       
  43 H43           -1.0082    -7.0689     0.3727 H       
  44 H44            0.5154    -7.3185    -0.5744 H       
  45 H45           -0.2124    -8.5845     2.0631 H       
  46 H46            1.3206    -8.8356     1.1102 H       
@<TRIPOS>BOND
   1    1    9 1
   2    2    3 2
   3    2    7 1
   4    2   31 1
   5    3    4 1
   6    3   32 1
   7    4    5 1
   8    4    8 1
   9    5    6 2
  10    6    7 1
  11    6   14 1
  12    7   25 2
  13    8    9 ar
  14    8   13 ar
  15    9   10 ar
  16   10   11 ar
  17   10   33 1
  18   11   12 ar
  19   11   26 1
  20   12   13 ar
  21   12   34 1
  22   13   35 1
  23   14   15 1
  24   14   18 2
  25   15   16 1
  26   15   19 1
  27   16   17 2
  28   17   18 1
  29   17   36 1
  30   18   37 1
  31   19   20 ar
  32   19   24 ar
  33   20   21 ar
  34   20   38 1
  35   21   22 ar
  36   21   39 1
  37   22   23 ar
  38   22   40 1
  39   23   24 ar
  40   23   41 1
  41   24   42 1
  42   26   27 1
  43   26   29 am
  44   27   28 1
  45   27   43 1
  46   27   44 1
  47   28   29 1
  48   28   45 1
  49   28   46 1
  50   29   30 2

#	End of record

