#	Name: ASD01940302
#	Creating user name:	WinNT
#	Creation time:	15. 06. 2019 20:12

#	Modifying user name:	WinNT
#	Modification time:	15. 06. 2019 20:12

#	Program:	/corina/corina34_cracker 3.40 0067  02.08.2006

@<TRIPOS>MOLECULE
ASD01940302
  47   49    0    0    0
SMALL
NO_CHARGES


@<TRIPOS>ATOM
   1 C1            -1.8065     2.9815     1.1084 C.3     
   2 C2            -2.9440     4.0045     1.1298 C.3     
   3 C3            -3.2014     2.5648     1.5792 C.3     
   4 S4            -1.2536     2.3774    -0.5102 S.o2    
   5 O5            -0.1657     1.4755    -0.3608 O.2     
   6 O6            -2.3688     2.0510    -1.3282 O.2     
   7 N7            -0.5859     3.7051    -1.2408 N.am    
   8 C8            -0.7138     3.1177     2.1707 C.3     
   9 C9             0.2315     1.9177     2.0867 C.3     
  10 O10            1.1614     1.9670     3.1707 O.3     
  11 C11            0.5511     4.3147    -0.6856 C.ar    
  12 C12            0.4866     5.6297    -0.2318 C.ar    
  13 C13            1.6138     6.2282     0.3170 C.ar    
  14 C14            2.7993     5.5177     0.4123 C.ar    
  15 C15            2.8647     4.2104    -0.0390 C.ar    
  16 C16            1.7421     3.6047    -0.5827 C.ar    
  17 O17            1.8074     2.3180    -1.0199 O.3     
  18 C18            3.0322     1.6174    -0.7939 C.3     
  19 N19           -0.7131     6.3481    -0.3289 N.pl3   
  20 C20           -0.6969     7.7456    -0.2828 C.ar    
  21 C21           -0.1526     8.4718    -1.3376 C.ar    
  22 C22           -0.1385     9.8532    -1.2880 C.ar    
  23 C23           -0.6650    10.5126    -0.1912 C.ar    
  24 C24           -1.2065     9.7927     0.8581 C.ar    
  25 C25           -1.2290     8.4118     0.8127 C.ar    
  26 I26           -0.6411    12.6062    -0.1198 I       
  27 F27            0.3617     7.8279    -2.4081 F       
  28 F28            3.8941     6.1019     0.9463 F       
  29 F29            1.5539     7.5040     0.7577 F       
  30 H30           -2.9139     4.7746     1.9006 H       
  31 H31           -3.3601     4.3146     0.1712 H       
  32 H32           -3.7868     1.9277     0.9163 H       
  33 H33           -3.3406     2.3878     2.6456 H       
  34 H34           -0.9801     4.0618    -2.0521 H       
  35 H35           -0.1519     4.0357     1.9983 H       
  36 H36           -1.1708     3.1518     3.1597 H       
  37 H37           -0.3462     0.9952     2.1453 H       
  38 H38            0.7735     1.9475     1.1415 H       
  39 H39            1.7930     1.2349     3.1807 H       
  40 H40            3.7908     3.6598     0.0366 H       
  41 H41            2.9755     0.6297    -1.2514 H       
  42 H42            3.8572     2.1758    -1.2362 H       
  43 H43            3.1981     1.5122     0.2783 H       
  44 H44           -1.5545     5.8758    -0.4281 H       
  45 H45            0.2839    10.4182    -2.1058 H       
  46 H46           -1.6161    10.3107     1.7127 H       
  47 H47           -1.6566     7.8511     1.6308 H       
@<TRIPOS>BOND
   1    1    2 1
   2    1    3 1
   3    1    4 1
   4    1    8 1
   5    2    3 1
   6    2   30 1
   7    2   31 1
   8    3   32 1
   9    3   33 1
  10    4    5 2
  11    4    6 2
  12    4    7 am
  13    7   11 1
  14    7   34 1
  15    8    9 1
  16    8   35 1
  17    8   36 1
  18    9   10 1
  19    9   37 1
  20    9   38 1
  21   10   39 1
  22   11   12 ar
  23   11   16 ar
  24   12   13 ar
  25   12   19 1
  26   13   14 ar
  27   13   29 1
  28   14   15 ar
  29   14   28 1
  30   15   16 ar
  31   15   40 1
  32   16   17 1
  33   17   18 1
  34   18   41 1
  35   18   42 1
  36   18   43 1
  37   19   20 1
  38   19   44 1
  39   20   21 ar
  40   20   25 ar
  41   21   22 ar
  42   21   27 1
  43   22   23 ar
  44   22   45 1
  45   23   24 ar
  46   23   26 1
  47   24   25 ar
  48   24   46 1
  49   25   47 1

#	End of record

