#	Name: ASD08150163
#	Creating user name:	WinNT
#	Creation time:	15. 06. 2019 21:15

#	Modifying user name:	WinNT
#	Modification time:	15. 06. 2019 21:15

#	Program:	/corina/corina34_cracker 3.40 0067  02.08.2006

@<TRIPOS>MOLECULE
ASD08150163
  55   59    0    0    0
SMALL
NO_CHARGES


@<TRIPOS>ATOM
   1 O1            -0.0164     1.3591     0.0095 O.3     
   2 C2             0.0021    -0.0041     0.0020 C.2     
   3 N3             1.1503    -0.5041     0.5341 N.am    
   4 C4             1.9721     0.6306     0.8995 C.3     
   5 C5             1.3712     1.7456    -0.0017 C.3     
   6 C6             3.4599     0.6128     0.6474 C.3     
   7 C7             4.0135     1.9615     1.1429 C.3     
   8 C8             3.3208     3.1434     0.4730 C.3     
   9 C9             1.7879     3.0634     0.6153 C.3     
  10 O10           -0.9016    -0.6923    -0.4292 O.2     
  11 C11            2.9064    -3.4772     1.4820 C.ar    
  12 N12            2.1304    -4.4490     1.0284 N.ar    
  13 C13            0.9934    -4.1721     0.3899 C.ar    
  14 C14            0.6286    -2.8392     0.2041 C.ar    
  15 C15            1.4725    -1.8473     0.6963 C.ar    
  16 N16            2.5906    -2.2007     1.3230 N.ar    
  17 C17           -1.4330    -7.2430    -1.0294 C.ar    
  18 N18           -0.3080    -7.5502    -0.3985 N.ar    
  19 C19            0.4883    -6.6046     0.0661 C.ar    
  20 C20            0.1297    -5.2654    -0.1156 C.ar    
  21 C21           -1.0643    -4.9838    -0.7858 C.ar    
  22 N22           -1.8069    -5.9858    -1.2210 N.ar    
  23 C23            1.7647    -6.9638     0.7822 C.3     
  24 F24            1.9520    -8.3494     0.7349 F       
  25 F25            2.8436    -6.3259     0.1605 F       
  26 F26            1.6836    -6.5494     2.1160 F       
  27 N27            4.0764    -3.8039     2.1452 N.3     
  28 C28            4.2470    -5.2619     2.2256 C.3     
  29 C29            5.5788    -5.5774     2.9117 C.3     
  30 O30            5.6041    -4.9574     4.2003 O.3     
  31 C31            5.4414    -3.5372     4.1591 C.3     
  32 C32            4.1082    -3.2010     3.4857 C.3     
  33 N33           -2.2358    -8.2624    -1.5055 N.pl3   
  34 H34            1.7950     0.8814     1.9454 H       
  35 H35            1.7710     1.6613    -1.0122 H       
  36 H36            3.9215    -0.2050     1.2008 H       
  37 H37            3.6555     0.4992    -0.4189 H       
  38 H38            3.8681     2.0298     2.2210 H       
  39 H39            5.0810     2.0074     0.9271 H       
  40 H40            3.6723     4.0676     0.9315 H       
  41 H41            3.5792     3.1530    -0.5859 H       
  42 H42            1.3190     3.8907     0.0826 H       
  43 H43            1.5081     3.0885     1.6684 H       
  44 H44           -0.2861    -2.5825    -0.3095 H       
  45 H45           -1.3748    -3.9619    -0.9457 H       
  46 H46            3.4291    -5.6927     2.8031 H       
  47 H47            4.2461    -5.6844     1.2209 H       
  48 H48            5.6833    -6.6564     3.0249 H       
  49 H49            6.4000    -5.1930     2.3067 H       
  50 H50            5.4464    -3.1407     5.1744 H       
  51 H51            6.2585    -3.0935     3.5903 H       
  52 H52            4.0059    -2.1191     3.4007 H       
  53 H53            3.2880    -3.5989     4.0832 H       
  54 H54           -1.9732    -9.1872    -1.3761 H       
  55 H55           -3.0618    -8.0530    -1.9690 H       
@<TRIPOS>BOND
   1    1    2 1
   2    1    5 1
   3    2    3 am
   4    2   10 2
   5    3    4 1
   6    3   15 1
   7    4    5 1
   8    4    6 1
   9    4   34 1
  10    5    9 1
  11    5   35 1
  12    6    7 1
  13    6   36 1
  14    6   37 1
  15    7    8 1
  16    7   38 1
  17    7   39 1
  18    8    9 1
  19    8   40 1
  20    8   41 1
  21    9   42 1
  22    9   43 1
  23   11   12 ar
  24   11   16 ar
  25   11   27 1
  26   12   13 ar
  27   13   14 ar
  28   13   20 1
  29   14   15 ar
  30   14   44 1
  31   15   16 ar
  32   17   18 ar
  33   17   22 ar
  34   17   33 1
  35   18   19 ar
  36   19   20 ar
  37   19   23 1
  38   20   21 ar
  39   21   22 ar
  40   21   45 1
  41   23   24 1
  42   23   25 1
  43   23   26 1
  44   27   28 1
  45   27   32 1
  46   28   29 1
  47   28   46 1
  48   28   47 1
  49   29   30 1
  50   29   48 1
  51   29   49 1
  52   30   31 1
  53   31   32 1
  54   31   50 1
  55   31   51 1
  56   32   52 1
  57   32   53 1
  58   33   54 1
  59   33   55 1

#	End of record

