#	Name: ASD00310175
#	Creating user name:	WinNT
#	Creation time:	15. 06. 2019 18:33

#	Modifying user name:	WinNT
#	Modification time:	15. 06. 2019 18:33

#	Program:	/corina/corina34_cracker 3.40 0067  02.08.2006

@<TRIPOS>MOLECULE
ASD00310175
  40   40    0    0    0
SMALL
NO_CHARGES


@<TRIPOS>ATOM
   1 C1            -0.0184     1.5028     0.0103 C.2     
   2 C2             0.0021    -0.0041     0.0020 C.3     
   3 C3             1.4295    -0.4870    -0.0142 C.2     
   4 O4             1.0197     2.1211     0.0037 O.2     
   5 O5            -1.1898     2.1580     0.0194 O.3     
   6 O6             1.8427    -1.1811     0.8844 O.2     
   7 O7             2.2419    -0.1461    -1.0269 O.3     
   8 C8            -0.7002    -0.5305     1.2552 C.3     
   9 C9            -2.1803    -0.1456     1.2101 C.3     
  10 O10           -2.8363    -0.6373     2.3806 O.3     
  11 C11           -4.1655    -0.3791     2.4975 C.ar    
  12 C12           -4.8651    -0.8271     3.6085 C.ar    
  13 C13           -6.2161    -0.5637     3.7253 C.ar    
  14 C14           -6.8716     0.1461     2.7351 C.ar    
  15 C15           -6.1758     0.5938     1.6263 C.ar    
  16 C16           -4.8234     0.3378     1.5086 C.ar    
  17 Br17          -8.7213     0.5042     2.8971 Br      
  18 C18           -1.1335     3.6089     0.0270 C.3     
  19 C19           -2.5551     4.1744     0.0369 C.3     
  20 C20            3.6038    -0.6471    -0.9768 C.3     
  21 C21            4.3726    -0.1583    -2.2060 C.3     
  22 H22           -0.5153    -0.3696    -0.8850 H       
  23 H23           -0.6082    -1.6159     1.2944 H       
  24 H24           -0.2382    -0.0945     2.1409 H       
  25 H25           -2.2724     0.9398     1.1709 H       
  26 H26           -2.6423    -0.5816     0.3244 H       
  27 H27           -4.3539    -1.3818     4.3814 H       
  28 H28           -6.7611    -0.9123     4.5901 H       
  29 H29           -6.6894     1.1477     0.8544 H       
  30 H30           -4.2797     0.6913     0.6450 H       
  31 H31           -0.6017     3.9472     0.9164 H       
  32 H32           -0.6102     3.9569    -0.8636 H       
  33 H33           -3.0869     3.8361    -0.8525 H       
  34 H34           -3.0784     3.8265     0.9275 H       
  35 H35           -2.5128     5.2636     0.0426 H       
  36 H36            4.0924    -0.2816    -0.0736 H       
  37 H37            3.5898    -1.7370    -0.9666 H       
  38 H38            3.8840    -0.5239    -3.1092 H       
  39 H39            4.3865     0.9315    -2.2161 H       
  40 H40            5.3949    -0.5345    -2.1684 H       
@<TRIPOS>BOND
   1    1    2 1
   2    1    4 2
   3    1    5 1
   4    2    3 1
   5    2    8 1
   6    2   22 1
   7    3    6 2
   8    3    7 1
   9    5   18 1
  10    7   20 1
  11    8    9 1
  12    8   23 1
  13    8   24 1
  14    9   10 1
  15    9   25 1
  16    9   26 1
  17   10   11 1
  18   11   12 ar
  19   11   16 ar
  20   12   13 ar
  21   12   27 1
  22   13   14 ar
  23   13   28 1
  24   14   15 ar
  25   14   17 1
  26   15   16 ar
  27   15   29 1
  28   16   30 1
  29   18   19 1
  30   18   31 1
  31   18   32 1
  32   19   33 1
  33   19   34 1
  34   19   35 1
  35   20   21 1
  36   20   36 1
  37   20   37 1
  38   21   38 1
  39   21   39 1
  40   21   40 1

#	End of record

