#	Name: ASD01030026
#	Creating user name:	WinNT
#	Creation time:	15. 06. 2019 18:58

#	Modifying user name:	WinNT
#	Modification time:	15. 06. 2019 18:58

#	Program:	/corina/corina34_cracker 3.40 0067  02.08.2006

@<TRIPOS>MOLECULE
ASD01030026
  26   25    0    0    0
SMALL
NO_CHARGES


@<TRIPOS>ATOM
   1 C1            -0.0187     1.5258     0.0104 C.3     
   2 C2             0.0021    -0.0041     0.0020 C.3     
   3 P3             1.6916     2.1568    -0.0025 P.3     
   4 O4             2.3450     1.9661     1.4565 O.3     
   5 O5             2.5563     1.3413    -1.0885 O.3     
   6 O6             1.6845     3.5939    -0.3559 O.2     
   7 O7            -0.7098     1.9991    -1.1473 O.3     
   8 F8             0.6569    -0.4552    -1.1490 F       
   9 F9             0.6787    -0.4675     1.1354 F       
  10 F10           -1.3104    -0.4883     0.0119 F       
  11 C11            3.6429     2.4567     1.7982 C.3     
  12 C12            3.9534     2.1065     3.2548 C.3     
  13 C13            3.9093     1.6689    -1.4110 C.3     
  14 C14            4.4290     0.6999    -2.4749 C.3     
  15 H15           -0.5289     1.8773     0.9072 H       
  16 H16           -0.3104     1.7238    -1.9838 H       
  17 H17            4.3876     1.9981     1.1476 H       
  18 H18            3.6671     3.5391     1.6716 H       
  19 H19            3.9292     1.0241     3.3814 H       
  20 H20            4.9434     2.4807     3.5155 H       
  21 H21            3.2087     2.5651     3.9054 H       
  22 H22            3.9548     2.6882    -1.7946 H       
  23 H23            4.5256     1.5899    -0.5155 H       
  24 H24            4.3835    -0.3193    -2.0914 H       
  25 H25            3.8127     0.7790    -3.3705 H       
  26 H26            5.4610     0.9498    -2.7209 H       
@<TRIPOS>BOND
   1    1    2 1
   2    1    3 1
   3    1    7 1
   4    1   15 1
   5    2    8 1
   6    2    9 1
   7    2   10 1
   8    3    4 1
   9    3    5 1
  10    3    6 2
  11    4   11 1
  12    5   13 1
  13    7   16 1
  14   11   12 1
  15   11   17 1
  16   11   18 1
  17   12   19 1
  18   12   20 1
  19   12   21 1
  20   13   14 1
  21   13   22 1
  22   13   23 1
  23   14   24 1
  24   14   25 1
  25   14   26 1

#	End of record

