#	Name: ASD08178336
#	Creating user name:	WinNT
#	Creation time:	15. 06. 2019 21:18

#	Modifying user name:	WinNT
#	Modification time:	15. 06. 2019 21:18

#	Program:	/corina/corina34_cracker 3.40 0067  02.08.2006

@<TRIPOS>MOLECULE
ASD08178336
  64   67    0    0    0
SMALL
NO_CHARGES


@<TRIPOS>ATOM
   1 N1            -0.0168     1.3902     0.0097 N.am    
   2 C2            -0.2173     0.0103     0.0231 C.ar    
   3 C3             0.8683    -0.8557    -0.0926 C.ar    
   4 N4            -1.4399    -0.4832     0.1513 N.ar    
   5 N5            -1.6667    -1.7463     0.1686 N.ar    
   6 C6            -0.7002    -2.6368     0.0602 C.ar    
   7 C7             0.6159    -2.2190    -0.0733 C.ar    
   8 C8            -1.0247    -4.1082     0.0874 C.3     
   9 C9            -1.8115    -4.4335     1.3586 C.3     
  10 C10           -2.1410    -5.9273     1.3862 C.3     
  11 C11           -2.9278    -6.2527     2.6574 C.3     
  12 C12           -3.2523    -7.7241     2.6845 C.2     
  13 N13           -2.5213    -8.6581     3.2049 N.2     
  14 N14           -2.9690    -9.8359     3.1257 N.2     
  15 C15           -4.1130   -10.0077     2.5350 C.2     
  16 S16           -4.6995    -8.4828     2.0200 S.3     
  17 N17           -4.7575   -11.2270     2.3553 N.am    
  18 C18           -4.1929   -12.3617     2.8139 C.2     
  19 C19           -4.8913   -13.6828     2.6192 C.3     
  20 O20           -3.1229   -12.3195     3.3832 O.2     
  21 C21           -4.0568   -14.7853     3.2184 C.ar    
  22 C22           -4.1628   -15.0782     4.5650 C.ar    
  23 C23           -3.3971   -16.0896     5.1148 C.ar    
  24 C24           -2.5260   -16.8081     4.3177 C.ar    
  25 C25           -2.4206   -16.5156     2.9706 C.ar    
  26 C26           -3.1892   -15.5074     2.4201 C.ar    
  27 C27           -1.0750     2.2250     0.0167 C.2     
  28 C28           -0.8601     3.7130     0.1198 C.3     
  29 O29           -2.2000     1.7786    -0.0599 O.2     
  30 C30           -2.1935     4.4152     0.1067 C.ar    
  31 C31           -2.7594     4.8466     1.2918 C.ar    
  32 C32           -2.8487     4.6331    -1.0920 C.ar    
  33 C33           -4.0730     5.2779    -1.1033 C.ar    
  34 C34           -4.6404     5.7036     0.0827 C.ar    
  35 C35           -3.9825     5.4902     1.2799 C.ar    
  36 Cl36          -2.1351     4.0985    -2.5815 Cl      
  37 C37           -5.1126   -14.2949     5.4340 C.3     
  38 H38            0.8842     1.7494    -0.0006 H       
  39 H39            1.8745    -0.4770    -0.1944 H       
  40 H40            1.4199    -2.9345    -0.1636 H       
  41 H41           -1.6240    -4.3643    -0.7864 H       
  42 H42           -0.0997    -4.6845     0.0751 H       
  43 H43           -1.2123    -4.1774     2.2323 H       
  44 H44           -2.7366    -3.8571     1.3708 H       
  45 H45           -2.7402    -6.1835     0.5124 H       
  46 H46           -1.2159    -6.5037     1.3739 H       
  47 H47           -2.3286    -5.9966     3.5311 H       
  48 H48           -3.8529    -5.6763     2.6696 H       
  49 H49           -5.6133   -11.2607     1.9000 H       
  50 H50           -5.8640   -13.6554     3.1104 H       
  51 H51           -5.0274   -13.8683     1.5537 H       
  52 H52           -3.4794   -16.3181     6.1671 H       
  53 H53           -1.9273   -17.5977     4.7473 H       
  54 H54           -1.7396   -17.0768     2.3478 H       
  55 H55           -3.1069   -15.2790     1.3677 H       
  56 H56           -0.3385     3.9413     1.0493 H       
  57 H57           -0.2620     4.0532    -0.7255 H       
  58 H58           -2.2458     4.6804     2.2272 H       
  59 H59           -4.5849     5.4486    -2.0388 H       
  60 H60           -5.5960     6.2069     0.0740 H       
  61 H61           -4.4265     5.8228     2.2066 H       
  62 H62           -6.0876   -14.7822     5.4377 H       
  63 H63           -4.7236   -14.2528     6.4514 H       
  64 H64           -5.2136   -13.2830     5.0416 H       
@<TRIPOS>BOND
   1    1    2 1
   2    1   27 am
   3    1   38 1
   4    2    3 ar
   5    2    4 ar
   6    3    7 ar
   7    3   39 1
   8    4    5 ar
   9    5    6 ar
  10    6    7 ar
  11    6    8 1
  12    7   40 1
  13    8    9 1
  14    8   41 1
  15    8   42 1
  16    9   10 1
  17    9   43 1
  18    9   44 1
  19   10   11 1
  20   10   45 1
  21   10   46 1
  22   11   12 1
  23   11   47 1
  24   11   48 1
  25   12   13 2
  26   12   16 1
  27   13   14 1
  28   14   15 2
  29   15   16 1
  30   15   17 1
  31   17   18 am
  32   17   49 1
  33   18   19 1
  34   18   20 2
  35   19   21 1
  36   19   50 1
  37   19   51 1
  38   21   22 ar
  39   21   26 ar
  40   22   23 ar
  41   22   37 1
  42   23   24 ar
  43   23   52 1
  44   24   25 ar
  45   24   53 1
  46   25   26 ar
  47   25   54 1
  48   26   55 1
  49   27   28 1
  50   27   29 2
  51   28   30 1
  52   28   56 1
  53   28   57 1
  54   30   31 ar
  55   30   32 ar
  56   31   35 ar
  57   31   58 1
  58   32   33 ar
  59   32   36 1
  60   33   34 ar
  61   33   59 1
  62   34   35 ar
  63   34   60 1
  64   35   61 1
  65   37   62 1
  66   37   63 1
  67   37   64 1

#	End of record

