#	Name: ASD01730008
#	Creating user name:	WinNT
#	Creation time:	15. 06. 2019 19:23

#	Modifying user name:	WinNT
#	Modification time:	15. 06. 2019 19:23

#	Program:	/corina/corina34_cracker 3.40 0067  02.08.2006

@<TRIPOS>MOLECULE
ASD01730008
  44   45    0    0    0
SMALL
NO_CHARGES


@<TRIPOS>ATOM
   1 C1             0.1994     1.7247     0.0872 C.2     
   2 C2             0.4666     0.2440     0.1721 C.3     
   3 N3             1.1966     2.5681     0.0639 N.2     
   4 N4            -1.0833     2.1837     0.0289 N.pl3   
   5 S5             3.8917     3.1465     0.3360 S.3     
   6 C6             2.4717     2.1178     0.2107 C.2     
   7 N7             2.8118     0.8721     0.2787 N.2     
   8 C8             4.1194     0.5846     0.4255 C.ar    
   9 C9             4.9251     1.7269     0.4824 C.ar    
  10 C10            4.7381    -0.6804     0.5244 C.ar    
  11 C11            6.0979    -0.7806     0.6732 C.ar    
  12 C12            6.8895     0.3623     0.7291 C.ar    
  13 C13            6.3046     1.6103     0.6322 C.ar    
  14 O14            8.2365     0.2511     0.8781 O.3     
  15 C15            8.7721    -1.0704     0.9709 C.3     
  16 F16            8.4627    -1.7818    -0.1934 F       
  17 F17           10.1614    -1.0012     1.1198 F       
  18 F18            8.2164    -1.7222     2.0771 F       
  19 C19           -1.3486     3.6238     0.0730 C.3     
  20 C20           -1.3541     4.1852    -1.3503 C.3     
  21 C21           -1.6312     5.6892    -1.3043 C.3     
  22 C22           -2.1961     1.2368    -0.0778 C.3     
  23 C23           -2.7406     0.9304     1.3188 C.3     
  24 C24           -3.9027    -0.0585     1.2075 C.3     
  25 H25            1.0889     0.0365     1.0426 H       
  26 H26           -0.4785    -0.2910     0.2653 H       
  27 H27            0.9826    -0.0844    -0.7300 H       
  28 H28            4.1361    -1.5761     0.4829 H       
  29 H29            6.5580    -1.7548     0.7480 H       
  30 H30            6.9186     2.4977     0.6752 H       
  31 H31           -2.3190     3.8005     0.5370 H       
  32 H32           -0.5717     4.1188     0.6557 H       
  33 H33           -0.3838     4.0085    -1.8144 H       
  34 H34           -2.1310     3.6903    -1.9331 H       
  35 H35           -2.6016     5.8658    -0.8403 H       
  36 H36           -0.8543     6.1841    -0.7216 H       
  37 H37           -1.6351     6.0891    -2.3183 H       
  38 H38           -2.9868     1.6727    -0.6884 H       
  39 H39           -1.8454     0.3148    -0.5414 H       
  40 H40           -1.9499     0.4945     1.9295 H       
  41 H41           -3.0913     1.8524     1.7825 H       
  42 H42           -4.2906    -0.2769     2.2024 H       
  43 H43           -4.6934     0.3773     0.5968 H       
  44 H44           -3.5520    -0.9806     0.7438 H       
@<TRIPOS>BOND
   1    1    2 1
   2    1    3 2
   3    1    4 1
   4    2   25 1
   5    2   26 1
   6    2   27 1
   7    3    6 1
   8    4   19 1
   9    4   22 1
  10    5    6 1
  11    5    9 1
  12    6    7 2
  13    7    8 1
  14    8    9 ar
  15    8   10 ar
  16    9   13 ar
  17   10   11 ar
  18   10   28 1
  19   11   12 ar
  20   11   29 1
  21   12   13 ar
  22   12   14 1
  23   13   30 1
  24   14   15 1
  25   15   16 1
  26   15   17 1
  27   15   18 1
  28   19   20 1
  29   19   31 1
  30   19   32 1
  31   20   21 1
  32   20   33 1
  33   20   34 1
  34   21   35 1
  35   21   36 1
  36   21   37 1
  37   22   23 1
  38   22   38 1
  39   22   39 1
  40   23   24 1
  41   23   40 1
  42   23   41 1
  43   24   42 1
  44   24   43 1
  45   24   44 1

#	End of record

