#	Name: ASD01811102
#	Creating user name:	WinNT
#	Creation time:	15. 06. 2019 19:26

#	Modifying user name:	WinNT
#	Modification time:	15. 06. 2019 19:26

#	Program:	/corina/corina34_cracker 3.40 0067  02.08.2006

@<TRIPOS>MOLECULE
ASD01811102
  49   52    0    0    0
SMALL
NO_CHARGES


@<TRIPOS>ATOM
   1 C1            -0.6636     1.4725     0.0038 C.2     
   2 C2            -0.4076     0.1541    -0.0327 C.2     
   3 N3            -1.4203    -0.7579     0.0643 N.pl3   
   4 C4            -2.7089    -0.4178     0.1863 C.2     
   5 C5            -3.0746     0.9133     0.2230 C.2     
   6 C6            -2.0084     1.9192     0.1320 C.2     
   7 C7            -1.0779    -2.1820     0.0326 C.3     
   8 C8            -1.2003    -2.6968    -1.3785 C.ar    
   9 O9            -2.2706     3.1112     0.1582 O.2     
  10 C10           -4.4853     1.3107     0.3537 C.2     
  11 O11           -5.3512     0.4613     0.4313 O.2     
  12 O12           -4.8172     2.6166     0.3873 O.3     
  13 C13           -0.0795    -2.7666    -2.1861 C.ar    
  14 C14           -0.1859    -3.2369    -3.4793 C.ar    
  15 C15           -1.4252    -3.6421    -3.9708 C.ar    
  16 C16           -2.5508    -3.5700    -3.1527 C.ar    
  17 C17           -2.4320    -3.1030    -1.8593 C.ar    
  18 C18           -1.5459    -4.1481    -5.3605 C.ar    
  19 C19           -2.7849    -4.5532    -5.8517 C.ar    
  20 C20           -2.8913    -5.0235    -7.1464 C.ar    
  21 C21           -1.7695    -5.0923    -7.9543 C.ar    
  22 C22           -0.5373    -4.6911    -7.4705 C.ar    
  23 C23           -0.4211    -4.2144    -6.1807 C.ar    
  24 C24            0.4095     2.5252    -0.0784 C.3     
  25 C25            1.7037     1.9369    -0.6363 C.3     
  26 C26            2.0306     0.6651     0.1561 C.3     
  27 C27            0.9890    -0.3954    -0.1908 C.3     
  28 O28           -0.0330     3.5823    -0.9320 O.3     
  29 Cl29          -4.4341    -5.5295    -7.7607 Cl      
  30 H30           -3.4647    -1.1861     0.2558 H       
  31 H31           -0.0541    -2.3173     0.3812 H       
  32 H32           -1.7585    -2.7338     0.6810 H       
  33 H33           -5.7567     2.8286     0.4742 H       
  34 H34            0.8805    -2.4523    -1.8041 H       
  35 H35            0.6896    -3.2903    -4.1093 H       
  36 H36           -3.5137    -3.8828    -3.5286 H       
  37 H37           -3.3038    -3.0468    -1.2243 H       
  38 H38           -3.6604    -4.5001    -5.2216 H       
  39 H39           -1.8565    -5.4608    -8.9657 H       
  40 H40            0.3350    -4.7471    -8.1049 H       
  41 H41            0.5416    -3.9011    -5.8045 H       
  42 H42            0.5974     2.9246     0.9182 H       
  43 H43            1.5716     1.6903    -1.6898 H       
  44 H44            2.5135     2.6580    -0.5253 H       
  45 H45            3.0238     0.3077    -0.1159 H       
  46 H46            1.9960     0.8785     1.2244 H       
  47 H47            1.1147    -1.2519     0.4715 H       
  48 H48            1.1336    -0.7163    -1.2224 H       
  49 H49            0.6074     4.2996    -1.0341 H       
@<TRIPOS>BOND
   1    1    2 2
   2    1   24 1
   3    1    6 1
   4    2    3 1
   5    2   27 1
   6    3    4 1
   7    3    7 1
   8    4    5 2
   9    4   30 1
  10    5    6 1
  11    5   10 1
  12    6    9 2
  13    7    8 1
  14    7   31 1
  15    7   32 1
  16    8   13 ar
  17    8   17 ar
  18   10   11 2
  19   10   12 1
  20   12   33 1
  21   13   14 ar
  22   13   34 1
  23   14   15 ar
  24   14   35 1
  25   15   16 ar
  26   15   18 1
  27   16   17 ar
  28   16   36 1
  29   17   37 1
  30   18   19 ar
  31   18   23 ar
  32   19   20 ar
  33   19   38 1
  34   20   21 ar
  35   20   29 1
  36   21   22 ar
  37   21   39 1
  38   22   23 ar
  39   22   40 1
  40   23   41 1
  41   24   25 1
  42   24   28 1
  43   24   42 1
  44   25   26 1
  45   25   43 1
  46   25   44 1
  47   26   27 1
  48   26   45 1
  49   26   46 1
  50   27   47 1
  51   27   48 1
  52   28   49 1

#	End of record

