#	Name: ASD03540214
#	Creating user name:	WinNT
#	Creation time:	15. 06. 2019 20:42

#	Modifying user name:	WinNT
#	Modification time:	15. 06. 2019 20:42

#	Program:	/corina/corina34_cracker 3.40 0067  02.08.2006

@<TRIPOS>MOLECULE
ASD03540214
  51   55    0    0    0
SMALL
NO_CHARGES


@<TRIPOS>ATOM
   1 C1            -0.0161     1.3365     0.0094 C.2     
   2 N2             0.0021    -0.0041     0.0020 N.am    
   3 C3             1.1931    -0.7075    -0.0132 C.2     
   4 C4             2.3928    -0.0051    -0.0209 C.2     
   5 C5             2.3194     1.4734    -0.0115 C.2     
   6 N6             1.1110     2.0661     0.0025 N.am    
   7 C7             3.5129    -0.8381    -0.0361 C.2     
   8 C8             3.2256    -2.1516    -0.0404 C.2     
   9 S9             1.4874    -2.3902    -0.0250 S.3     
  10 C10            4.2183    -3.2259    -0.0565 C.2     
  11 O11            5.4048    -2.9577    -0.0671 O.2     
  12 O12            3.8179    -4.5143    -0.0595 O.3     
  13 O13            3.3358     2.1426    -0.0175 O.2     
  14 O14           -1.0880     1.9101     0.0175 O.2     
  15 C15           -1.2652    -0.7390     0.0107 C.3     
  16 C16            1.0243     3.5285     0.0113 C.3     
  17 C17            2.1077     4.3236     2.1042 C.2     
  18 N18            1.0086     4.0085     1.3953 N.am    
  19 C19           -0.1067     4.1929     2.1244 C.2     
  20 C20            0.2817     4.6833     3.4637 C.ar    
  21 C21           -0.4189     5.0368     4.6057 C.ar    
  22 C22            0.2697     5.4699     5.7279 C.ar    
  23 C23            1.6496     5.5513     5.7153 C.ar    
  24 C24            2.3637     5.2010     4.5802 C.ar    
  25 C25            1.6887     4.7663     3.4508 C.ar    
  26 O26           -1.2427     3.9904     1.7457 O.2     
  27 O27            3.2528     4.2515     1.7061 O.2     
  28 C28            4.8413    -5.5116    -0.0754 C.3     
  29 C29            4.2094    -6.8798    -0.0765 C.ar    
  30 C30            3.9074    -7.5007    -1.2740 C.ar    
  31 C31            3.3277    -8.7556    -1.2750 C.ar    
  32 C32            3.0505    -9.3898    -0.0785 C.ar    
  33 C33            3.3533    -8.7693     1.1191 C.ar    
  34 C34            3.9370    -7.5162     1.1200 C.ar    
  35 H35            4.5244    -0.4597    -0.0438 H       
  36 H36           -2.0950    -0.0322     0.0228 H       
  37 H37           -1.3307    -1.3609    -0.8820 H       
  38 H38           -1.3130    -1.3705     0.8978 H       
  39 H39            1.8863     3.9467    -0.5086 H       
  40 H40            0.1095     3.8412    -0.4921 H       
  41 H41           -1.4971     4.9755     4.6212 H       
  42 H42           -0.2756     5.7460     6.6183 H       
  43 H43            2.1748     5.8905     6.5959 H       
  44 H44            3.4417     5.2665     4.5759 H       
  45 H45            5.4510    -5.3923    -0.9710 H       
  46 H46            5.4691    -5.4021     0.8089 H       
  47 H47            4.1240    -7.0051    -2.2089 H       
  48 H48            3.0911    -9.2404    -2.2107 H       
  49 H49            2.5970   -10.3700    -0.0792 H       
  50 H50            3.1364    -9.2647     2.0539 H       
  51 H51            4.1770    -7.0330     2.0556 H       
@<TRIPOS>BOND
   1    1    2 am
   2    1    6 am
   3    1   14 2
   4    2    3 1
   5    2   15 1
   6    3    4 2
   7    3    9 1
   8    4    5 1
   9    4    7 1
  10    5    6 am
  11    5   13 2
  12    6   16 1
  13    7    8 2
  14    7   35 1
  15    8    9 1
  16    8   10 1
  17   10   11 2
  18   10   12 1
  19   12   28 1
  20   15   36 1
  21   15   37 1
  22   15   38 1
  23   16   18 1
  24   16   39 1
  25   16   40 1
  26   17   18 am
  27   17   25 1
  28   17   27 2
  29   18   19 am
  30   19   20 1
  31   19   26 2
  32   20   21 ar
  33   20   25 ar
  34   21   22 ar
  35   21   41 1
  36   22   23 ar
  37   22   42 1
  38   23   24 ar
  39   23   43 1
  40   24   25 ar
  41   24   44 1
  42   28   29 1
  43   28   45 1
  44   28   46 1
  45   29   30 ar
  46   29   34 ar
  47   30   31 ar
  48   30   47 1
  49   31   32 ar
  50   31   48 1
  51   32   33 ar
  52   32   49 1
  53   33   34 ar
  54   33   50 1
  55   34   51 1

#	End of record

