#	Name: ASD03082099
#	Creating user name:	WinNT
#	Creation time:	15. 06. 2019 20:27

#	Modifying user name:	WinNT
#	Modification time:	15. 06. 2019 20:27

#	Program:	/corina/corina34_cracker 3.40 0067  02.08.2006

@<TRIPOS>MOLECULE
ASD03082099
  63   66    0    0    0
SMALL
NO_CHARGES


@<TRIPOS>ATOM
   1 C1            -0.0176     1.4478     0.0100 C.3     
   2 O2             0.0021    -0.0041     0.0020 O.3     
   3 C3            -1.1901    -0.6321     0.0100 C.2     
   4 C4            -1.2473    -2.1054     0.0027 C.ar    
   5 C5             1.4178     1.9774    -0.0009 C.3     
   6 C6             2.0960     1.5891    -1.3176 C.3     
   7 C7             3.5108     2.1738    -1.3457 C.3     
   8 C8             3.4332     3.6929    -1.1776 C.3     
   9 N9             2.7773     4.0127     0.0968 N.3     
  10 C10            1.4008     3.5022     0.1283 C.3     
  11 C11            2.8087     5.4582     0.3568 C.3     
  12 C12            1.9534     6.1825    -0.6846 C.3     
  13 O13            0.5856     5.7997    -0.5273 O.3     
  14 C14           -0.3133     6.3572    -1.3808 C.ar    
  15 C15           -1.6578     6.0301    -1.2842 C.ar    
  16 C16           -2.5706     6.5975    -2.1525 C.ar    
  17 C17           -2.1448     7.4912    -3.1185 C.ar    
  18 C18           -0.8029     7.8195    -3.2171 C.ar    
  19 C19            0.1121     7.2584    -2.3459 C.ar    
  20 O20           -2.2179     0.0157     0.0233 O.2     
  21 C21           -0.0682    -2.8542    -0.0126 C.ar    
  22 C22           -0.1286    -4.2314    -0.0190 C.ar    
  23 C23           -1.3536    -4.8776    -0.0103 C.ar    
  24 C24           -2.5275    -4.1501     0.0044 C.ar    
  25 C25           -2.4861    -2.7636     0.0168 C.ar    
  26 N26           -3.6720    -2.0264     0.0316 N.am    
  27 C27           -4.2797    -1.6543     1.1650 C.2     
  28 C28           -5.5313    -0.8745     0.8260 C.3     
  29 C29           -5.5418    -0.8604    -0.7162 C.3     
  30 C30           -4.2919    -1.6288    -1.0864 C.2     
  31 O31           -3.8892    -1.9029     2.2854 O.2     
  32 O32           -3.9154    -1.8548    -2.2163 O.2     
  33 C33           -6.7727    -1.5872     1.3664 C.3     
  34 Cl34          -0.2708     8.9415    -4.4302 Cl      
  35 Cl35          -3.2936     8.2018    -4.2090 Cl      
  36 H36           -0.5448     1.8089    -0.8731 H       
  37 H37           -0.5278     1.7993     0.9068 H       
  38 H38            1.9708     1.5470     0.8341 H       
  39 H39            2.1491     0.5030    -1.3936 H       
  40 H40            1.5211     1.9860    -2.1543 H       
  41 H41            4.0972     1.7471    -0.5319 H       
  42 H42            3.9837     1.9368    -2.2988 H       
  43 H43            4.4399     4.1108    -1.1828 H       
  44 H44            2.8584     4.1203    -1.9992 H       
  45 H45            0.8355     3.9305    -0.6994 H       
  46 H46            0.9313     3.7816     1.0715 H       
  47 H47            2.4137     5.6568     1.3531 H       
  48 H48            3.8365     5.8161     0.2955 H       
  49 H49            2.0474     7.2596    -0.5465 H       
  50 H50            2.2932     5.9133    -1.6847 H       
  51 H51           -1.9909     5.3318    -0.5307 H       
  52 H52           -3.6174     6.3427    -2.0772 H       
  53 H53            1.1585     7.5145    -2.4224 H       
  54 H54            0.8894    -2.3549    -0.0198 H       
  55 H55            0.7837    -4.8092    -0.0311 H       
  56 H56           -1.3911    -5.9569    -0.0153 H       
  57 H57           -3.4788    -4.6614     0.0104 H       
  58 H58           -5.4691     0.1405     1.2185 H       
  59 H59           -6.4313    -1.3611    -1.0984 H       
  60 H60           -5.4847     0.1616    -1.0909 H       
  61 H61           -6.7084    -1.6557     2.4523 H       
  62 H62           -7.6641    -1.0241     1.0899 H       
  63 H63           -6.8299    -2.5895     0.9418 H       
@<TRIPOS>BOND
   1    1    2 1
   2    1    5 1
   3    1   36 1
   4    1   37 1
   5    2    3 1
   6    3    4 1
   7    3   20 2
   8    4   21 ar
   9    4   25 ar
  10    5    6 1
  11    5   10 1
  12    5   38 1
  13    6    7 1
  14    6   39 1
  15    6   40 1
  16    7    8 1
  17    7   41 1
  18    7   42 1
  19    8    9 1
  20    8   43 1
  21    8   44 1
  22    9   10 1
  23    9   11 1
  24   10   45 1
  25   10   46 1
  26   11   12 1
  27   11   47 1
  28   11   48 1
  29   12   13 1
  30   12   49 1
  31   12   50 1
  32   13   14 1
  33   14   15 ar
  34   14   19 ar
  35   15   16 ar
  36   15   51 1
  37   16   17 ar
  38   16   52 1
  39   17   18 ar
  40   17   35 1
  41   18   19 ar
  42   18   34 1
  43   19   53 1
  44   21   22 ar
  45   21   54 1
  46   22   23 ar
  47   22   55 1
  48   23   24 ar
  49   23   56 1
  50   24   25 ar
  51   24   57 1
  52   25   26 1
  53   26   27 am
  54   26   30 am
  55   27   28 1
  56   27   31 2
  57   28   29 1
  58   28   33 1
  59   28   58 1
  60   29   30 1
  61   29   59 1
  62   29   60 1
  63   30   32 2
  64   33   61 1
  65   33   62 1
  66   33   63 1

#	End of record

