#	Name: ASD05790089
#	Creating user name:	WinNT
#	Creation time:	15. 06. 2019 21:03

#	Modifying user name:	WinNT
#	Modification time:	15. 06. 2019 21:03

#	Program:	/corina/corina34_cracker 3.40 0067  02.08.2006

@<TRIPOS>MOLECULE
ASD05790089
  42   45    0    0    0
SMALL
NO_CHARGES


@<TRIPOS>ATOM
   1 C1            -0.0067     1.3666    -0.2057 C.ar    
   2 C2             0.0067    -0.0115     0.0208 C.ar    
   3 C3             1.2201    -0.6694     0.2334 C.ar    
   4 C4             2.3996     0.0423     0.2191 C.ar    
   5 C5             2.3827     1.4145    -0.0063 C.ar    
   6 C6             1.1762     2.0725    -0.2188 C.ar    
   7 N7             3.5799     2.1330    -0.0193 N.am    
   8 C8             4.6964     1.5733    -0.5258 C.2     
   9 O9             4.6825     0.4144    -0.8933 O.2     
  10 C10            5.9366     2.3675    -0.6345 C.ar    
  11 C11            5.9560     3.6991    -0.2132 C.ar    
  12 C12            7.0976     1.7884    -1.1539 C.ar    
  13 C13            8.2536     2.5371    -1.2526 C.ar    
  14 C14            8.2634     3.8578    -0.8383 C.ar    
  15 C15            7.1165     4.4354    -0.3171 C.ar    
  16 C16           -1.2601    -0.7715     0.0360 C.2     
  17 O17           -2.4857    -0.2530    -0.1549 O.3     
  18 N18           -1.3725    -2.0632     0.2322 N.2     
  19 C19           -2.6793    -2.3947     0.1750 C.2     
  20 C20           -3.3789    -1.2578    -0.0682 C.2     
  21 C21           -3.2474    -3.7552     0.3433 C.ar    
  22 C22           -2.4062    -4.8391     0.5868 C.ar    
  23 C23           -2.9399    -6.1023     0.7425 C.ar    
  24 C24           -4.3073    -6.2934     0.6573 C.ar    
  25 C25           -5.1470    -5.2211     0.4159 C.ar    
  26 C26           -4.6245    -3.9527     0.2642 C.ar    
  27 Cl27           9.7207     4.7926    -0.9650 Cl      
  28 Cl28           7.0865     0.1319    -1.6732 Cl      
  29 H29           -0.9431     1.8775    -0.3749 H       
  30 H30            1.2338    -1.7349     0.4092 H       
  31 H31            3.3382    -0.4658     0.3834 H       
  32 H32            1.1666     3.1382    -0.3939 H       
  33 H33            3.6080     3.0351     0.3363 H       
  34 H34            5.0631     4.1511     0.1929 H       
  35 H35            9.1520     2.0913    -1.6534 H       
  36 H36            7.1308     5.4664     0.0039 H       
  37 H37           -4.4506    -1.1741    -0.1725 H       
  38 H38           -1.3384    -4.6910     0.6531 H       
  39 H39           -2.2888    -6.9431     0.9309 H       
  40 H40           -4.7207    -7.2837     0.7795 H       
  41 H41           -6.2138    -5.3761     0.3500 H       
  42 H42           -5.2811    -3.1161     0.0761 H       
@<TRIPOS>BOND
   1    1    2 ar
   2    1    6 ar
   3    1   29 1
   4    2    3 ar
   5    2   16 1
   6    3    4 ar
   7    3   30 1
   8    4    5 ar
   9    4   31 1
  10    5    6 ar
  11    5    7 1
  12    6   32 1
  13    7    8 am
  14    7   33 1
  15    8    9 2
  16    8   10 1
  17   10   11 ar
  18   10   12 ar
  19   11   15 ar
  20   11   34 1
  21   12   13 ar
  22   12   28 1
  23   13   14 ar
  24   13   35 1
  25   14   15 ar
  26   14   27 1
  27   15   36 1
  28   16   17 1
  29   16   18 2
  30   17   20 1
  31   18   19 1
  32   19   20 2
  33   19   21 1
  34   20   37 1
  35   21   22 ar
  36   21   26 ar
  37   22   23 ar
  38   22   38 1
  39   23   24 ar
  40   23   39 1
  41   24   25 ar
  42   24   40 1
  43   25   26 ar
  44   25   41 1
  45   26   42 1

#	End of record

