#	Name: ASD01885270
#	Creating user name:	WinNT
#	Creation time:	15. 06. 2019 19:49

#	Modifying user name:	WinNT
#	Modification time:	15. 06. 2019 19:49

#	Program:	/corina/corina34_cracker 3.40 0067  02.08.2006

@<TRIPOS>MOLECULE
ASD01885270
  55   59    0    0    0
SMALL
NO_CHARGES


@<TRIPOS>ATOM
   1 C1            -2.0815     0.3799    -0.3809 C.2     
   2 C2            -0.1195    -0.9821    -0.3011 C.2     
   3 C3             0.6550     0.1764    -0.4828 C.2     
   4 C4             0.0611     1.3820    -0.6060 C.2     
   5 N5            -1.2976     1.4934    -0.5573 N.pl3   
   6 C6            -2.1578     2.5434    -0.6500 C.2     
   7 N7            -3.3715     2.0693    -0.5342 N.2     
   8 N8            -3.3386     0.7922    -0.3794 N.2     
   9 C9            -1.7811     3.9889    -0.8490 C.3     
  10 C10            0.5495    -2.3255    -0.1635 C.3     
  11 C11           -1.7192     4.2983    -2.3462 C.3     
  12 N12            0.8111    -2.8812    -1.4979 N.3     
  13 C13            1.6693    -4.0711    -1.4139 C.3     
  14 C14            1.8524    -4.6647    -2.8127 C.3     
  15 N15            2.4456    -3.6525    -3.6977 N.3     
  16 C16            1.5874    -2.4625    -3.7817 C.3     
  17 C17            1.4043    -1.8690    -2.3829 C.3     
  18 C18            2.6949    -4.1820    -4.9691 C.ar    
  19 C19            3.4219    -3.4463    -5.9010 C.ar    
  20 C20            3.6659    -3.9760    -7.1594 C.ar    
  21 C21            3.1866    -5.2333    -7.4856 C.ar    
  22 C22            2.4647    -5.9632    -6.5595 C.ar    
  23 C23            2.2228    -5.4439    -5.3018 C.ar    
  24 C24           -1.4764    -0.8860    -0.2500 C.2     
  25 Cl25          -2.4497    -2.3059    -0.0256 Cl      
  26 C26           -1.4659     5.7500    -2.7577 C.3     
  27 C27           -0.3634     4.7030    -2.9284 C.3     
  28 O28            3.8916    -2.2107    -5.5782 O.3     
  29 C29            5.2138    -2.1391    -5.0410 C.3     
  30 F30            4.3706    -3.2651    -8.0667 F       
  31 H31            1.7316     0.1016    -0.5238 H       
  32 H32            0.6664     2.2655    -0.7449 H       
  33 H33           -2.5277     4.6273    -0.3767 H       
  34 H34           -0.8062     4.1757    -0.3988 H       
  35 H35            1.4913    -2.2091     0.3727 H       
  36 H36           -0.1026    -3.0011     0.3900 H       
  37 H37           -2.3811     3.7046    -2.9767 H       
  38 H38            2.6412    -3.7906    -1.0078 H       
  39 H39            1.2028    -4.8108    -0.7632 H       
  40 H40            2.5122    -5.5305    -2.7568 H       
  41 H41            0.8836    -4.9702    -3.2077 H       
  42 H42            2.0540    -1.7229    -4.4324 H       
  43 H43            0.6155    -2.7431    -4.1878 H       
  44 H44            0.7445    -1.0032    -2.4388 H       
  45 H45            2.3732    -1.5635    -1.9879 H       
  46 H46            3.3769    -5.6447    -8.4659 H       
  47 H47            2.0927    -6.9436    -6.8181 H       
  48 H48            1.6588    -6.0168    -4.5806 H       
  49 H49           -1.9609     6.1113    -3.6591 H       
  50 H50           -1.3434     6.4846    -1.9618 H       
  51 H51            0.4844     4.7488    -2.2449 H       
  52 H52           -0.1331     4.3754    -3.9422 H       
  53 H53            5.4935    -1.0948    -4.9020 H       
  54 H54            5.2443    -2.6543    -4.0810 H       
  55 H55            5.9122    -2.6136    -5.7304 H       
@<TRIPOS>BOND
   1    1   24 1
   2    1    5 1
   3    1    8 2
   4    2    3 1
   5    2   10 1
   6    2   24 2
   7    3    4 2
   8    3   31 1
   9    4    5 1
  10    4   32 1
  11    5    6 1
  12    6    7 2
  13    6    9 1
  14    7    8 1
  15    9   11 1
  16    9   33 1
  17    9   34 1
  18   10   12 1
  19   10   35 1
  20   10   36 1
  21   11   26 1
  22   11   27 1
  23   11   37 1
  24   12   13 1
  25   12   17 1
  26   13   14 1
  27   13   38 1
  28   13   39 1
  29   14   15 1
  30   14   40 1
  31   14   41 1
  32   15   16 1
  33   15   18 1
  34   16   17 1
  35   16   42 1
  36   16   43 1
  37   17   44 1
  38   17   45 1
  39   18   19 ar
  40   18   23 ar
  41   19   20 ar
  42   19   28 1
  43   20   21 ar
  44   20   30 1
  45   21   22 ar
  46   21   46 1
  47   22   23 ar
  48   22   47 1
  49   23   48 1
  50   24   25 1
  51   26   27 1
  52   26   49 1
  53   26   50 1
  54   27   51 1
  55   27   52 1
  56   28   29 1
  57   29   53 1
  58   29   54 1
  59   29   55 1

#	End of record

