#	Name: ASD01840042
#	Creating user name:	WinNT
#	Creation time:	15. 06. 2019 19:37

#	Modifying user name:	WinNT
#	Modification time:	15. 06. 2019 19:37

#	Program:	/corina/corina34_cracker 3.40 0067  02.08.2006

@<TRIPOS>MOLECULE
ASD01840042
  32   34    0    0    0
SMALL
NO_CHARGES


@<TRIPOS>ATOM
   1 C1             0.6330     1.8164    -1.1296 C.ar    
   2 C2             0.8292     0.6061    -1.7581 C.ar    
   3 N3             1.9840    -0.0260    -1.6386 N.ar    
   4 N4             2.9585     0.4398    -0.9506 N.ar    
   5 C5             2.8816     1.6029    -0.2997 C.ar    
   6 C6             1.6966     2.3482    -0.3649 C.ar    
   7 S7             4.0660     2.4380     0.6954 S.3     
   8 C8             2.9736     3.7710     1.0147 C.2     
   9 C9             1.7774     3.5813     0.3956 C.2     
  10 C10           -0.6744     2.5545    -1.2587 C.3     
  11 N11            0.7305     4.4854     0.4818 N.pl3   
  12 C12            3.2936     4.8966     1.8134 C.2     
  13 C13            4.5797     4.9442     2.5430 C.ar    
  14 O14            2.5100     5.8249     1.8994 O.2     
  15 C15            5.1935     6.1667     2.8201 C.ar    
  16 N16            6.3381     6.2092     3.4694 N.ar    
  17 C17            6.9467     5.1132     3.8814 C.ar    
  18 C18            6.4033     3.8632     3.6461 C.ar    
  19 C19            5.1986     3.7642     2.9721 C.ar    
  20 C20           -0.2765     0.0008    -2.5839 C.3     
  21 H21           -1.3153     2.3092    -0.4118 H       
  22 H22           -0.4858     3.6280    -1.2726 H       
  23 H23           -1.1679     2.2603    -2.1850 H       
  24 H24           -0.1713     4.2059     0.2596 H       
  25 H25            0.8997     5.3978     0.7644 H       
  26 H26            4.7258     7.0857     2.4988 H       
  27 H27            7.8846     5.1935     4.4108 H       
  28 H28            6.9119     2.9739     3.9880 H       
  29 H29            4.7496     2.8012     2.7788 H       
  30 H30           -0.1896     0.3440    -3.6148 H       
  31 H31           -0.1982    -1.0860    -2.5551 H       
  32 H32           -1.2413     0.3065    -2.1793 H       
@<TRIPOS>BOND
   1    1    2 ar
   2    1    6 ar
   3    1   10 1
   4    2    3 ar
   5    2   20 1
   6    3    4 ar
   7    4    5 ar
   8    5    7 1
   9    5    6 ar
  10    6    9 1
  11    7    8 1
  12    8    9 2
  13    8   12 1
  14    9   11 1
  15   10   21 1
  16   10   22 1
  17   10   23 1
  18   11   24 1
  19   11   25 1
  20   12   13 1
  21   12   14 2
  22   13   15 ar
  23   13   19 ar
  24   15   16 ar
  25   15   26 1
  26   16   17 ar
  27   17   18 ar
  28   17   27 1
  29   18   19 ar
  30   18   28 1
  31   19   29 1
  32   20   30 1
  33   20   31 1
  34   20   32 1

#	End of record

