#	Name: ASD01900380
#	Creating user name:	WinNT
#	Creation time:	15. 06. 2019 19:51

#	Modifying user name:	WinNT
#	Modification time:	15. 06. 2019 19:51

#	Program:	/corina/corina34_cracker 3.40 0067  02.08.2006

@<TRIPOS>MOLECULE
ASD01900380
  25   27    0    0    0
SMALL
NO_CHARGES


@<TRIPOS>ATOM
   1 C1            -0.0156     1.3861     0.0091 C.ar    
   2 C2             0.0027    -0.0025    -0.0064 C.ar    
   3 N3             1.1332    -0.6713    -0.0194 N.ar    
   4 C4             2.3090    -0.0477    -0.0183 C.ar    
   5 C5             2.3662     1.3590    -0.0030 C.ar    
   6 C6             1.1756     2.0848     0.0109 C.ar    
   7 C7             3.6987    -0.5103    -0.0311 C.2     
   8 N8             4.4695     0.5445    -0.0237 N.2     
   9 N9             3.6912     1.7065    -0.0065 N.pl3   
  10 N10            4.1243    -1.8428    -0.0479 N.pl3   
  11 C11            5.4776    -2.1390    -0.1682 C.ar    
  12 C12            5.9050    -3.4589    -0.0739 C.ar    
  13 N13            6.3473    -1.1618    -0.3769 N.ar    
  14 C14            7.6397    -1.3990    -0.4970 C.ar    
  15 C15            8.1351    -2.6843    -0.4085 C.ar    
  16 C16            7.2557    -3.7393    -0.1956 C.ar    
  17 Cl17           7.8379    -5.3706    -0.0783 Cl      
  18 H18           -0.9563     1.9167     0.0152 H       
  19 H19           -0.9319    -0.5437    -0.0074 H       
  20 H20            1.1848     3.1647     0.0225 H       
  21 H21            4.0349     2.6135     0.0014 H       
  22 H22            3.4754    -2.5602     0.0244 H       
  23 H23            5.1935    -4.2542     0.0923 H       
  24 H24            8.3189    -0.5766    -0.6670 H       
  25 H25            9.1946    -2.8687    -0.5080 H       
@<TRIPOS>BOND
   1    1    2 ar
   2    1    6 ar
   3    1   18 1
   4    2    3 ar
   5    2   19 1
   6    3    4 ar
   7    4    5 ar
   8    4    7 1
   9    5    6 ar
  10    5    9 1
  11    6   20 1
  12    7    8 2
  13    7   10 1
  14    8    9 1
  15    9   21 1
  16   10   11 1
  17   10   22 1
  18   11   12 ar
  19   11   13 ar
  20   12   16 ar
  21   12   23 1
  22   13   14 ar
  23   14   15 ar
  24   14   24 1
  25   15   16 ar
  26   15   25 1
  27   16   17 1

#	End of record

