#	Name: ASD01411277
#	Creating user name:	WinNT
#	Creation time:	15. 06. 2019 19:19

#	Modifying user name:	WinNT
#	Modification time:	15. 06. 2019 19:19

#	Program:	/corina/corina34_cracker 3.40 0067  02.08.2006

@<TRIPOS>MOLECULE
ASD01411277
 114  121    0    0    0
SMALL
NO_CHARGES


@<TRIPOS>ATOM
   1 C1             0.0568     2.3188     0.0021 C.ar    
   2 C2            -0.0373     0.9126    -0.0428 C.ar    
   3 C3            -1.2974     0.2947    -0.0010 C.ar    
   4 C4            -2.4300     1.0544     0.0163 C.ar    
   5 C5            -2.3428     2.4470    -0.0108 C.ar    
   6 C6            -1.0985     3.0797     0.0160 C.ar    
   7 N7             1.3997     2.6444     0.0055 N.pl3   
   8 C8             2.1318     1.4862    -0.1087 C.2     
   9 C9             1.2873     0.4235    -0.1353 C.2     
  10 C10            1.9450     3.9990     0.1291 C.3     
  11 C11            1.2227     4.9393    -0.7975 C.2     
  12 N12            1.5814     6.2652    -0.7928 N.am    
  13 O13            0.3446     4.5362    -1.5305 O.2     
  14 C14            0.8515     7.1019    -1.7763 C.3     
  15 C15           -0.4380     7.5753    -1.1590 C.2     
  16 C16           -1.5833     7.1703    -1.6503 C.2     
  17 C17           -3.5455     3.3032    -0.1097 C.2     
  18 O18           -4.6724     2.8474    -0.1419 O.2     
  19 N19           -3.2921     4.6529    -0.1620 N.am    
  20 C20           -2.8793     7.6456    -1.0457 C.3     
  21 N21           -3.9760     6.7944    -1.5693 N.am    
  22 S22           -4.5811     5.6497    -0.5085 S.o2    
  23 C23            3.6053     1.4100    -0.1903 C.ar    
  24 C24            4.2420     1.4538    -1.4344 C.ar    
  25 C25            1.6902    -1.0245    -0.2447 C.3     
  26 C26            1.1912    -1.7870     0.9843 C.3     
  27 C27            1.6003    -3.2571     0.8732 C.3     
  28 C28            0.9838    -3.8641    -0.3886 C.3     
  29 C29            1.4828    -3.1016    -1.6176 C.3     
  30 C30            1.0737    -1.6315    -1.5066 C.3     
  31 C31            5.6193     1.3822    -1.5048 C.ar    
  32 C32            6.3698     1.2671    -0.3429 C.ar    
  33 C33            5.7399     1.2234     0.8947 C.ar    
  34 C34            4.3664     1.3000     0.9751 C.ar    
  35 C35            8.4356     1.0791     0.8179 C.3     
  36 O36            7.7245     1.1965    -0.4160 O.3     
  37 C37            9.9154     1.0144     0.5407 C.ar    
  38 C38           10.8194     1.0003     1.5948 C.ar    
  39 O39           -5.5167     4.8690    -1.2395 O.2     
  40 O40           -4.9022     6.3358     0.6937 O.2     
  41 C41           -4.4971     6.9466    -2.9300 C.3     
  42 F42            3.5113     1.5653    -2.5652 F       
  43 C43           12.1834     0.9408     1.3389 C.ar    
  44 C44           12.6401     0.8956     0.0371 C.ar    
  45 C45           11.7360     0.9102    -1.0169 C.ar    
  46 C46           10.3724     0.9635    -0.7614 C.ar    
  47 N47           12.1999     0.8649    -2.3387 N.am    
  48 C48           13.4964     0.9160    -2.6896 C.2     
  49 C49           11.3328     0.7492    -3.5171 C.3     
  50 C50           12.2093     1.1719    -4.7169 C.3     
  51 C51           13.6308     0.8533    -4.1951 C.3     
  52 O52           14.4237     1.0008    -1.9123 O.2     
  53 N53           10.3564     1.0465     2.9140 N.3     
  54 C54           10.7934     2.2795     3.5824 C.3     
  55 C55           10.7801    -0.1443     3.6626 C.3     
  56 C56           10.1064    -0.1448     5.0390 C.3     
  57 N57           10.3910     1.1385     5.6989 N.am    
  58 C58           10.1202     2.3784     4.9554 C.3     
  59 S59           10.9995     1.1862     7.2383 S.o2    
  60 C60           12.7995     1.1686     7.0142 C.3     
  61 O61           10.5724     2.4431     7.7452 O.2     
  62 O62           10.5584    -0.0295     7.8272 O.2     
  63 H63           -1.3699    -0.7827     0.0170 H       
  64 H64           -3.3979     0.5765     0.0508 H       
  65 H65           -1.0382     4.1575     0.0477 H       
  66 H66            1.8267     4.3432     1.1566 H       
  67 H67            3.0050     3.9859    -0.1245 H       
  68 H68            2.2564     6.6245    -0.1961 H       
  69 H69            1.4630     7.9623    -2.0479 H       
  70 H70            0.6343     6.5120    -2.6668 H       
  71 H71           -0.4223     8.2466    -0.3133 H       
  72 H72           -1.5987     6.4892    -2.4895 H       
  73 H73           -2.4037     5.0088    -0.0041 H       
  74 H74           -2.8324     7.5582     0.0398 H       
  75 H75           -3.0555     8.6847    -1.3240 H       
  76 H76            2.7765    -1.0961    -0.3003 H       
  77 H77            1.6304    -1.3546     1.8833 H       
  78 H78            0.1049    -1.7154     1.0400 H       
  79 H79            2.6865    -3.3288     0.8176 H       
  80 H80            1.2447    -3.8003     1.7488 H       
  81 H81            1.2752    -4.9114    -0.4678 H       
  82 H82           -0.1025    -3.7925    -0.3330 H       
  83 H83            2.5691    -3.1732    -1.6733 H       
  84 H84            1.0436    -3.5340    -2.5166 H       
  85 H85           -0.0125    -1.5598    -1.4509 H       
  86 H86            1.4293    -1.0883    -2.3821 H       
  87 H87            6.1129     1.4155    -2.4648 H       
  88 H88            6.3283     1.1335     1.7959 H       
  89 H89            3.8786     1.2663     1.9381 H       
  90 H90            8.2208     1.9445     1.4448 H       
  91 H91            8.1223     0.1708     1.3327 H       
  92 H92           -3.9355     6.3040    -3.6082 H       
  93 H93           -5.5496     6.6640    -2.9498 H       
  94 H94           -4.3937     7.9851    -3.2446 H       
  95 H95           12.8866     0.9301     2.1586 H       
  96 H96           13.7006     0.8493    -0.1619 H       
  97 H97            9.6694     0.9745    -1.5812 H       
  98 H98           10.9977    -0.2808    -3.6392 H       
  99 H99           10.4762     1.4165    -3.4221 H       
 100 H100          11.9766     0.5757    -5.5992 H       
 101 H101          12.0973     2.2357    -4.9261 H       
 102 H102          14.3424     1.6006    -4.5462 H       
 103 H103          13.9378    -0.1443    -4.5092 H       
 104 H104          11.8759     2.2609     3.7085 H       
 105 H105          10.5121     3.1409     2.9766 H       
 106 H106          10.4893    -1.0407     3.1150 H       
 107 H107          11.8628    -0.1292     3.7876 H       
 108 H108           9.0296    -0.2642     4.9195 H       
 109 H109          10.5038    -0.9620     5.6409 H       
 110 H110          10.5267     3.2293     5.5021 H       
 111 H111           9.0447     2.5014     4.8280 H       
 112 H112          13.1015     2.0380     6.4302 H       
 113 H113          13.2873     1.1981     7.9885 H       
 114 H114          13.0914     0.2590     6.4892 H       
@<TRIPOS>BOND
   1    1    2 ar
   2    1    7 1
   3    1    6 ar
   4    2    3 ar
   5    2    9 1
   6    3    4 ar
   7    3   63 1
   8    4    5 ar
   9    4   64 1
  10    5    6 ar
  11    5   17 1
  12    6   65 1
  13    7    8 1
  14    7   10 1
  15    8    9 2
  16    8   23 1
  17    9   25 1
  18   10   11 1
  19   10   66 1
  20   10   67 1
  21   11   12 am
  22   11   13 2
  23   12   14 1
  24   12   68 1
  25   14   15 1
  26   14   69 1
  27   14   70 1
  28   15   16 2
  29   15   71 1
  30   16   20 1
  31   16   72 1
  32   17   18 2
  33   17   19 am
  34   19   22 am
  35   19   73 1
  36   20   21 1
  37   20   74 1
  38   20   75 1
  39   21   22 am
  40   21   41 1
  41   22   39 2
  42   22   40 2
  43   23   24 ar
  44   23   34 ar
  45   24   31 ar
  46   24   42 1
  47   25   26 1
  48   25   30 1
  49   25   76 1
  50   26   27 1
  51   26   77 1
  52   26   78 1
  53   27   28 1
  54   27   79 1
  55   27   80 1
  56   28   29 1
  57   28   81 1
  58   28   82 1
  59   29   30 1
  60   29   83 1
  61   29   84 1
  62   30   85 1
  63   30   86 1
  64   31   32 ar
  65   31   87 1
  66   32   33 ar
  67   32   36 1
  68   33   34 ar
  69   33   88 1
  70   34   89 1
  71   35   36 1
  72   35   37 1
  73   35   90 1
  74   35   91 1
  75   37   38 ar
  76   37   46 ar
  77   38   43 ar
  78   38   53 1
  79   41   92 1
  80   41   93 1
  81   41   94 1
  82   43   44 ar
  83   43   95 1
  84   44   45 ar
  85   44   96 1
  86   45   46 ar
  87   45   47 1
  88   46   97 1
  89   47   48 am
  90   47   49 1
  91   48   52 2
  92   48   51 1
  93   49   50 1
  94   49   98 1
  95   49   99 1
  96   50   51 1
  97   50  100 1
  98   50  101 1
  99   51  102 1
 100   51  103 1
 101   53   54 1
 102   53   55 1
 103   54   58 1
 104   54  104 1
 105   54  105 1
 106   55   56 1
 107   55  106 1
 108   55  107 1
 109   56   57 1
 110   56  108 1
 111   56  109 1
 112   57   58 1
 113   57   59 am
 114   58  110 1
 115   58  111 1
 116   59   60 1
 117   59   61 2
 118   59   62 2
 119   60  112 1
 120   60  113 1
 121   60  114 1

#	End of record

