#	Name: ASD08780015
#	Creating user name:	WinNT
#	Creation time:	15. 06. 2019 21:19

#	Modifying user name:	WinNT
#	Modification time:	15. 06. 2019 21:19

#	Program:	/corina/corina34_cracker 3.40 0067  02.08.2006

@<TRIPOS>MOLECULE
ASD08780015
  29   29    0    0    0
SMALL
NO_CHARGES


@<TRIPOS>ATOM
   1 C1            -0.0188     1.2889    -0.6177 C.ar    
   2 C2             0.0013    -0.0331    -0.2126 C.ar    
   3 C3             1.2068    -0.6784    -0.0170 C.ar    
   4 C4             2.3982     0.0009    -0.2274 C.ar    
   5 C5             2.3753     1.3270    -0.6338 C.ar    
   6 C6             1.1669     1.9680    -0.8280 C.ar    
   7 S7            -1.5582     2.1071    -0.8734 S.o2    
   8 O8            -1.2991     3.1785    -1.7702 O.2     
   9 O9            -2.5151     1.0895    -1.1341 O.2     
  10 N10           -1.9914     2.7981     0.5678 N.am    
  11 N11            1.2276    -2.0932     0.4170 N.pl3   
  12 O12            0.1814    -2.6890     0.6019 O.2     
  13 O13            2.2909    -2.6618     0.5893 O.2     
  14 O14            3.5855    -0.6317    -0.0353 O.3     
  15 C15            4.7691     0.1604    -0.1529 C.3     
  16 C16            5.8935    -0.4784     0.6648 C.3     
  17 C17            5.1874     0.2371    -1.6226 C.3     
  18 H18           -0.9263    -0.5613    -0.0487 H       
  19 H19            3.3013     1.8580    -0.7979 H       
  20 H20            1.1485     3.0004    -1.1447 H       
  21 H21           -1.4180     2.7008     1.3441 H       
  22 H22           -2.8185     3.3003     0.6358 H       
  23 H23            4.5728     1.1649     0.2219 H       
  24 H24            6.0898    -1.4829     0.2900 H       
  25 H25            6.7963     0.1258     0.5751 H       
  26 H26            5.5955    -0.5331     1.7118 H       
  27 H27            4.3864     0.6921    -2.2051 H       
  28 H28            6.0902     0.8412    -1.7123 H       
  29 H29            5.3837    -0.7674    -1.9974 H       
@<TRIPOS>BOND
   1    1    2 ar
   2    1    6 ar
   3    1    7 1
   4    2    3 ar
   5    2   18 1
   6    3    4 ar
   7    3   11 1
   8    4    5 ar
   9    4   14 1
  10    5    6 ar
  11    5   19 1
  12    6   20 1
  13    7    8 2
  14    7    9 2
  15    7   10 am
  16   10   21 1
  17   10   22 1
  18   11   12 2
  19   11   13 2
  20   14   15 1
  21   15   16 1
  22   15   17 1
  23   15   23 1
  24   16   24 1
  25   16   25 1
  26   16   26 1
  27   17   27 1
  28   17   28 1
  29   17   29 1

#	End of record

