#	Name: ASD05060015
#	Creating user name:	WinNT
#	Creation time:	15. 06. 2019 20:56

#	Modifying user name:	WinNT
#	Modification time:	15. 06. 2019 20:56

#	Program:	/corina/corina34_cracker 3.40 0067  02.08.2006

@<TRIPOS>MOLECULE
ASD05060015
 118  118    0    0    0
SMALL
NO_CHARGES


@<TRIPOS>ATOM
   1 N1            -1.6050     3.1993    -1.3729 N.3     
   2 N2            -1.7773     1.7599    -1.2615 N.3     
   3 C3            -3.1896     1.4134    -1.0532 C.3     
   4 C4            -3.5180     1.5063     0.4147 C.2     
   5 N5            -4.6866     2.1053     0.7909 N.am    
   6 C6            -4.9337     2.1558     2.2498 C.3     
   7 C7            -5.9098     3.2681     2.5345 C.2     
   8 N8            -5.8235     3.9380     3.7162 N.am    
   9 C9            -6.8059     5.0178     3.9369 C.3     
  10 C10           -6.0734     6.2628     4.3661 C.2     
  11 N11           -6.5075     7.4730     3.9054 N.am    
  12 C12           -5.7373     8.6462     4.3769 C.3     
  13 C13           -5.2959     9.4464     3.1786 C.2     
  14 N14           -4.1278    10.1424     3.2420 N.am    
  15 C15           -3.7471    10.9065     2.0374 C.3     
  16 C16           -2.3373    10.5380     1.6529 C.2     
  17 N17           -1.9330    10.7402     0.3640 N.am    
  18 C18           -0.5362    10.3491     0.0672 C.3     
  19 C19           -0.5385     9.4233    -1.1219 C.2     
  20 C20            0.3119     8.2041    -1.1164 C.2     
  21 C21            0.3070     7.2767    -2.3044 C.3     
  22 N22            0.3779     5.8832    -1.8214 N.am    
  23 C23           -0.3702     4.9665    -2.4941 C.2     
  24 C24           -0.3415     3.5276    -2.0464 C.3     
  25 O25           -1.0506     5.3028    -3.4401 O.2     
  26 O26            1.0070     7.9569    -0.1600 O.2     
  27 O27           -1.2317     9.6718    -2.0794 O.2     
  28 O28           -1.5756    10.0709     2.4730 O.2     
  29 O29           -5.9716     9.4695     2.1717 O.2     
  30 O30           -5.1157     6.1913     5.1068 O.2     
  31 O31           -6.7609     3.5621     1.7219 O.2     
  32 O32           -2.7586     1.0571     1.2469 O.2     
  33 C33           -5.5228     0.8234     2.7173 C.3     
  34 C34            0.2891    11.5966    -0.2547 C.3     
  35 C35            0.3842    12.4805     0.9906 C.3     
  36 C36            1.1938    11.7573     2.0687 C.3     
  37 C37            1.0761    13.7967     0.6301 C.3     
  38 C38           -4.0742     2.3857    -1.8363 C.3     
  39 C39           -3.7427     2.2892    -3.3268 C.3     
  40 C40           -4.1149     0.8979    -3.8431 C.3     
  41 C41           -4.5367     3.3475    -4.0953 C.3     
  42 C42            0.8230     3.3184    -1.0764 C.3     
  43 O43            0.8670     1.9481    -0.6735 O.3     
  44 C44           -7.5659     5.2926     2.6378 C.3     
  45 C45           -6.5682     5.5847     1.5152 C.3     
  46 C46           -7.2738     5.4684     0.1626 C.3     
  47 C47           -8.4046     4.0673     2.2686 C.3     
  48 C48           -4.6983    10.5616     0.8897 C.3     
  49 C49           -4.5556     9.1027     0.5402 C.2     
  50 O50           -3.7705     8.4072     1.1492 O.2     
  51 N51           -5.3006     8.5707    -0.4490 N.am    
  52 C52           -6.9767     8.7444     6.5224 C.2     
  53 C53           -6.6211     9.5131     5.2759 C.3     
  54 O54           -6.5655     7.6188     6.6760 O.2     
  55 O55           -7.7504     9.3104     7.4621 O.3     
  56 C56           -2.1642     7.0760    -2.2629 C.2     
  57 C57           -0.9809     7.4767    -3.1057 C.3     
  58 O58           -1.9910     6.5969    -1.1673 O.2     
  59 O59           -3.4106     7.2512    -2.7294 O.3     
  60 H60           -2.3885     3.6215    -1.8482 H       
  61 H61           -1.4047     1.2874    -2.0714 H       
  62 H62           -3.3696     0.3966    -1.4022 H       
  63 H63           -5.3118     2.4721     0.1464 H       
  64 H64           -3.9970     2.3482     2.7730 H       
  65 H65           -5.1512     3.7170     4.3796 H       
  66 H66           -7.5072     4.7198     4.7163 H       
  67 H67           -7.2684     7.5581     3.3097 H       
  68 H68           -4.8630     8.3097     4.9343 H       
  69 H69           -3.5735    10.1364     4.0381 H       
  70 H70           -3.8004    11.9742     2.2502 H       
  71 H71           -2.5209    11.1141    -0.3108 H       
  72 H72           -0.1086     9.8367     0.9291 H       
  73 H73            1.1694     7.4884    -2.9366 H       
  74 H74            0.9297     5.6338    -1.0637 H       
  75 H75           -0.2130     2.8798    -2.9136 H       
  76 H76           -4.8216     0.0186     2.4964 H       
  77 H77           -5.7038     0.8630     3.7914 H       
  78 H78           -6.4627     0.6392     2.1970 H       
  79 H79            1.2904    11.2993    -0.5665 H       
  80 H80           -0.1919    12.1528    -1.0592 H       
  81 H81           -0.6177    12.6878     1.3664 H       
  82 H82            2.1958    11.5501     1.6929 H       
  83 H83            1.2616    12.3871     2.9558 H       
  84 H84            0.7009    10.8197     2.3255 H       
  85 H85            2.0425    13.5856     0.1723 H       
  86 H86            0.4552    14.3531    -0.0721 H       
  87 H87            1.2234    14.3889     1.5332 H       
  88 H88           -5.1222     2.1300    -1.6798 H       
  89 H89           -3.8925     3.4027    -1.4887 H       
  90 H90           -2.6759     2.4578    -3.4735 H       
  91 H91           -3.8788     0.8292    -4.9050 H       
  92 H92           -3.5493     0.1439    -3.2956 H       
  93 H93           -5.1818     0.7293    -3.6964 H       
  94 H94           -4.2715     4.3388    -3.7275 H       
  95 H95           -4.3005     3.2788    -5.1572 H       
  96 H96           -5.6035     3.1790    -3.9487 H       
  97 H97            1.7586     3.5824    -1.5695 H       
  98 H98            0.6835     3.9507    -0.1995 H       
  99 H99            1.5827     1.7423    -0.0565 H       
 100 H100          -8.2207     6.1531     2.7749 H       
 101 H101          -6.1734     6.5938     1.6335 H       
 102 H102          -5.7495     4.8666     1.5608 H       
 103 H103          -7.6686     4.4593     0.0444 H       
 104 H104          -8.0926     6.1865     0.1170 H       
 105 H105          -6.5630     5.6765    -0.6371 H       
 106 H106          -9.3323     4.0762     2.8408 H       
 107 H107          -8.6344     4.0919     1.2034 H       
 108 H108          -7.8445     3.1610     2.4986 H       
 109 H109          -5.7249    10.7633     1.1955 H       
 110 H110          -4.4525    11.1695     0.0190 H       
 111 H111          -5.9285     9.1270    -0.9360 H       
 112 H112          -5.2087     7.6316    -0.6739 H       
 113 H113          -6.0820    10.4200     5.5497 H       
 114 H114          -7.5326     9.7797     4.7410 H       
 115 H115          -7.9515     8.7783     8.2441 H       
 116 H116          -1.0742     8.5254    -3.3877 H       
 117 H117          -0.9493     6.8603    -4.0041 H       
 118 H118          -4.1375     6.9790    -2.1527 H       
@<TRIPOS>BOND
   1    1    2 1
   2    1   24 1
   3    1   60 1
   4    2    3 1
   5    2   61 1
   6    3    4 1
   7    3   38 1
   8    3   62 1
   9    4    5 am
  10    4   32 2
  11    5    6 1
  12    5   63 1
  13    6    7 1
  14    6   33 1
  15    6   64 1
  16    7    8 am
  17    7   31 2
  18    8    9 1
  19    8   65 1
  20    9   10 1
  21    9   44 1
  22    9   66 1
  23   10   11 am
  24   10   30 2
  25   11   12 1
  26   11   67 1
  27   12   13 1
  28   12   53 1
  29   12   68 1
  30   13   14 am
  31   13   29 2
  32   14   15 1
  33   14   69 1
  34   15   16 1
  35   15   48 1
  36   15   70 1
  37   16   17 am
  38   16   28 2
  39   17   18 1
  40   17   71 1
  41   18   19 1
  42   18   34 1
  43   18   72 1
  44   19   20 1
  45   19   27 2
  46   20   21 1
  47   20   26 2
  48   21   22 1
  49   21   57 1
  50   21   73 1
  51   22   23 am
  52   22   74 1
  53   23   24 1
  54   23   25 2
  55   24   42 1
  56   24   75 1
  57   33   76 1
  58   33   77 1
  59   33   78 1
  60   34   35 1
  61   34   79 1
  62   34   80 1
  63   35   36 1
  64   35   37 1
  65   35   81 1
  66   36   82 1
  67   36   83 1
  68   36   84 1
  69   37   85 1
  70   37   86 1
  71   37   87 1
  72   38   39 1
  73   38   88 1
  74   38   89 1
  75   39   40 1
  76   39   41 1
  77   39   90 1
  78   40   91 1
  79   40   92 1
  80   40   93 1
  81   41   94 1
  82   41   95 1
  83   41   96 1
  84   42   43 1
  85   42   97 1
  86   42   98 1
  87   43   99 1
  88   44   45 1
  89   44   47 1
  90   44  100 1
  91   45   46 1
  92   45  101 1
  93   45  102 1
  94   46  103 1
  95   46  104 1
  96   46  105 1
  97   47  106 1
  98   47  107 1
  99   47  108 1
 100   48   49 1
 101   48  109 1
 102   48  110 1
 103   49   50 2
 104   49   51 am
 105   51  111 1
 106   51  112 1
 107   52   53 1
 108   52   54 2
 109   52   55 1
 110   53  113 1
 111   53  114 1
 112   55  115 1
 113   56   57 1
 114   56   58 2
 115   56   59 1
 116   57  116 1
 117   57  117 1
 118   59  118 1

#	End of record

