#	Name: ASD01900925
#	Creating user name:	WinNT
#	Creation time:	15. 06. 2019 19:52

#	Modifying user name:	WinNT
#	Modification time:	15. 06. 2019 19:52

#	Program:	/corina/corina34_cracker 3.40 0067  02.08.2006

@<TRIPOS>MOLECULE
ASD01900925
  40   42    0    0    0
SMALL
NO_CHARGES


@<TRIPOS>ATOM
   1 C1            -0.0108     1.4889    -0.7406 C.ar    
   2 C2             0.0131     0.1571    -1.1498 C.ar    
   3 C3             1.2341    -0.4850    -1.2808 C.ar    
   4 C4             2.3895     0.2272    -0.9980 C.ar    
   5 C5             2.2911     1.5495    -0.5959 C.ar    
   6 N6             1.1190     2.1348    -0.4796 N.ar    
   7 C7            -1.3073     2.1913    -0.6017 C.2     
   8 O8            -2.3445     1.6062    -0.8441 O.2     
   9 N9            -1.3368     3.4794    -0.2063 N.am    
  10 S10           -2.7369     5.7655     0.4146 S.3     
  11 C11           -2.5525     4.1381    -0.0760 C.2     
  12 N12           -3.7127     3.6087    -0.3095 N.2     
  13 C13           -4.7681     4.3817    -0.1350 C.2     
  14 C14           -4.4865     5.6234     0.2650 C.2     
  15 C15           -6.1772     3.9012    -0.3689 C.3     
  16 S16           -5.6596     6.8980     0.5870 S.o2    
  17 O17           -6.8076     6.2065     1.0596 O.2     
  18 O18           -4.9620     7.8142     1.4195 O.2     
  19 C19           -5.9849     7.6351    -1.0383 C.3     
  20 C20           -6.9861     8.7518    -0.8921 C.ar    
  21 C21           -6.5523    10.0430    -0.6508 C.ar    
  22 C22           -7.4721    11.0678    -0.5167 C.ar    
  23 C23           -8.8242    10.8017    -0.6238 C.ar    
  24 C24           -9.2583     9.5117    -0.8644 C.ar    
  25 C25           -8.3392     8.4871    -1.0049 C.ar    
  26 Cl26          -8.8843     6.8683    -1.3148 Cl      
  27 Cl27          -4.8542    10.3772    -0.5157 Cl      
  28 H28           -0.9070    -0.3674    -1.3614 H       
  29 H29            1.2845    -1.5168    -1.5957 H       
  30 H30            3.3568    -0.2442    -1.0900 H       
  31 H31            3.1892     2.1071    -0.3749 H       
  32 H32           -0.5090     3.9465    -0.0128 H       
  33 H33           -6.6105     3.5724     0.5757 H       
  34 H34           -6.7752     4.7149    -0.7792 H       
  35 H35           -6.1651     3.0687    -1.0724 H       
  36 H36           -5.0565     8.0310    -1.4500 H       
  37 H37           -6.3844     6.8743    -1.7089 H       
  38 H38           -7.1335    12.0759    -0.3279 H       
  39 H39           -9.5418    11.6020    -0.5190 H       
  40 H40          -10.3150     9.3043    -0.9473 H       
@<TRIPOS>BOND
   1    1    2 ar
   2    1    6 ar
   3    1    7 1
   4    2    3 ar
   5    2   28 1
   6    3    4 ar
   7    3   29 1
   8    4    5 ar
   9    4   30 1
  10    5    6 ar
  11    5   31 1
  12    7    8 2
  13    7    9 am
  14    9   11 1
  15    9   32 1
  16   10   11 1
  17   10   14 1
  18   11   12 2
  19   12   13 1
  20   13   14 2
  21   13   15 1
  22   14   16 1
  23   15   33 1
  24   15   34 1
  25   15   35 1
  26   16   17 2
  27   16   18 2
  28   16   19 1
  29   19   20 1
  30   19   36 1
  31   19   37 1
  32   20   21 ar
  33   20   25 ar
  34   21   22 ar
  35   21   27 1
  36   22   23 ar
  37   22   38 1
  38   23   24 ar
  39   23   39 1
  40   24   25 ar
  41   24   40 1
  42   25   26 1

#	End of record

