#	Name: ASD03180087
#	Creating user name:	WinNT
#	Creation time:	15. 06. 2019 20:33

#	Modifying user name:	WinNT
#	Modification time:	15. 06. 2019 20:33

#	Program:	/corina/corina34_cracker 3.40 0067  02.08.2006

@<TRIPOS>MOLECULE
ASD03180087
  41   43    0    0    0
SMALL
NO_CHARGES


@<TRIPOS>ATOM
   1 C1            -0.0146     1.3827    -0.0387 C.ar    
   2 C2            -1.2363    -0.5835    -0.6653 C.ar    
   3 C3            -2.3859    -0.0410    -0.1202 C.ar    
   4 C4            -2.3552     1.2156     0.4560 C.ar    
   5 C5            -1.1721     1.9267     0.5030 C.ar    
   6 C6            -0.0513     0.1242    -0.6263 C.ar    
   7 C7            -1.1370     3.2912     1.1418 C.3     
   8 N8             1.1830     2.1019     0.0021 N.pl3   
   9 C9             2.3922     1.4302     0.0915 C.2     
  10 N10            3.5633     1.9817     0.0070 N.2     
  11 S11            2.5762    -0.3025     0.3451 S.3     
  12 C12            4.3288    -0.1258     0.3062 C.2     
  13 C13            4.6182     1.1748     0.1170 C.2     
  14 C14            6.0085     1.6737     0.0389 C.2     
  15 S15            7.4703     0.6985     0.1696 S.3     
  16 C16            8.4330     2.0964    -0.0338 C.2     
  17 N17            7.6866     3.1392    -0.1779 N.2     
  18 C18            6.3840     2.9567    -0.1511 C.2     
  19 C19            5.3961     4.0831    -0.3135 C.3     
  20 C20            9.9400     2.1091    -0.0436 C.3     
  21 C21           -1.3135     4.3633     0.0647 C.3     
  22 C22           10.4574     2.3162     1.3813 C.3     
  23 H23           -1.2635    -1.5654    -1.1142 H       
  24 H24           -3.3115    -0.5965    -0.1523 H       
  25 H25           -3.2547     1.6363     0.8807 H       
  26 H26            0.8459    -0.2999    -1.0524 H       
  27 H27           -1.9436     3.3721     1.8706 H       
  28 H28           -0.1793     3.4334     1.6426 H       
  29 H29            1.1680     3.0712    -0.0323 H       
  30 H30            5.0476    -0.9239     0.4188 H       
  31 H31            5.1614     4.5042     0.6640 H       
  32 H32            5.8283     4.8567    -0.9482 H       
  33 H33            4.4841     3.7030    -0.7739 H       
  34 H34           10.3088     1.1589    -0.4296 H       
  35 H35           10.2923     2.9211    -0.6796 H       
  36 H36           -2.2712     4.2211    -0.4361 H       
  37 H37           -1.2882     5.3502     0.5267 H       
  38 H38           -0.5070     4.2825    -0.6641 H       
  39 H39           10.1050     1.5042     2.0174 H       
  40 H40           11.5474     2.3254     1.3743 H       
  41 H41           10.0885     3.2664     1.7674 H       
@<TRIPOS>BOND
   1    1    6 ar
   2    1    8 1
   3    1    5 ar
   4    2    3 ar
   5    2    6 ar
   6    2   23 1
   7    3    4 ar
   8    3   24 1
   9    4    5 ar
  10    4   25 1
  11    5    7 1
  12    6   26 1
  13    7   21 1
  14    7   27 1
  15    7   28 1
  16    8    9 1
  17    8   29 1
  18    9   11 1
  19    9   10 2
  20   10   13 1
  21   11   12 1
  22   12   13 2
  23   12   30 1
  24   13   14 1
  25   14   15 1
  26   14   18 2
  27   15   16 1
  28   16   17 2
  29   16   20 1
  30   17   18 1
  31   18   19 1
  32   19   31 1
  33   19   32 1
  34   19   33 1
  35   20   22 1
  36   20   34 1
  37   20   35 1
  38   21   36 1
  39   21   37 1
  40   21   38 1
  41   22   39 1
  42   22   40 1
  43   22   41 1

#	End of record

