#	Name: ASD00122023
#	Creating user name:	WinNT
#	Creation time:	15. 06. 2019 18:31

#	Modifying user name:	WinNT
#	Modification time:	15. 06. 2019 18:31

#	Program:	/corina/corina34_cracker 3.40 0067  02.08.2006

@<TRIPOS>MOLECULE
ASD00122023
  31   31    0    0    0
SMALL
NO_CHARGES


@<TRIPOS>ATOM
   1 C1            -0.0167     1.3801     0.0096 C.ar    
   2 C2             0.0021    -0.0041     0.0020 C.ar    
   3 C3             1.2069    -0.6857    -0.0127 C.ar    
   4 C4             2.3970     0.0114    -0.0198 C.ar    
   5 C5             2.3848     1.4073    -0.0127 C.ar    
   6 C6             1.1665     2.0888     0.0021 C.ar    
   7 C7             3.6565     2.1606    -0.0197 C.2     
   8 N8             3.6415     3.5083    -0.0128 N.am    
   9 O9             4.7159     1.5647    -0.0318 O.2     
  10 C10            4.9020     4.2549    -0.0198 C.3     
  11 C11            4.6693     5.6427    -0.6205 C.3     
  12 C12            5.4171     4.3994     1.4135 C.3     
  13 C13            5.7678     3.0184     1.9711 C.3     
  14 C14            4.2741     5.5019    -2.0918 C.3     
  15 I15           -1.8004    -1.0718     0.0135 I       
  16 H16           -0.9599     1.9062     0.0169 H       
  17 H17            1.2150    -1.7657    -0.0182 H       
  18 H18            3.3362    -0.5215    -0.0305 H       
  19 H19            1.1506     3.1687     0.0077 H       
  20 H20            2.7962     3.9839    -0.0032 H       
  21 H21            5.6385     3.7188    -0.6183 H       
  22 H22            3.8697     6.1449    -0.0760 H       
  23 H23            5.5848     6.2295    -0.5448 H       
  24 H24            6.3065     5.0297     1.4182 H       
  25 H25            4.6450     4.8559     2.0328 H       
  26 H26            6.1348     3.1214     2.9923 H       
  27 H27            4.8785     2.3882     1.9664 H       
  28 H28            6.5399     2.5619     1.3518 H       
  29 H29            5.0737     4.9997    -2.6364 H       
  30 H30            3.3587     4.9151    -2.1676 H       
  31 H31            4.1084     6.4906    -2.5198 H       
@<TRIPOS>BOND
   1    1    2 ar
   2    1    6 ar
   3    1   16 1
   4    2    3 ar
   5    2   15 1
   6    3    4 ar
   7    3   17 1
   8    4    5 ar
   9    4   18 1
  10    5    6 ar
  11    5    7 1
  12    6   19 1
  13    7    8 am
  14    7    9 2
  15    8   10 1
  16    8   20 1
  17   10   11 1
  18   10   12 1
  19   10   21 1
  20   11   14 1
  21   11   22 1
  22   11   23 1
  23   12   13 1
  24   12   24 1
  25   12   25 1
  26   13   26 1
  27   13   27 1
  28   13   28 1
  29   14   29 1
  30   14   30 1
  31   14   31 1

#	End of record

