#	Name: ASD03091496
#	Creating user name:	WinNT
#	Creation time:	15. 06. 2019 20:30

#	Modifying user name:	WinNT
#	Modification time:	15. 06. 2019 20:30

#	Program:	/corina/corina34_cracker 3.40 0067  02.08.2006

@<TRIPOS>MOLECULE
ASD03091496
  40   42    0    0    0
SMALL
NO_CHARGES


@<TRIPOS>ATOM
   1 Cl1            0.0000     0.0000     0.0000 Cl      
   2 H2             0.0000     1.3700     0.0000 H       
   3 C3            14.5450    10.3514     7.3430 C.ar    
   4 C4            14.5640     8.9511     7.3353 C.ar    
   5 C5            15.7865     8.2712     7.3204 C.ar    
   6 C6            16.9674     8.9734     7.3133 C.ar    
   7 C7            16.9541    10.3630     7.3209 C.ar    
   8 C8            15.7788    11.0456     7.3350 C.ar    
   9 S9            12.9138     8.3396     7.3477 S.3     
  10 C10           12.2578     9.9671     7.3628 C.2     
  11 C11           13.2413    10.8726     7.3639 C.2     
  12 C12           10.8238    10.2903     7.3774 C.2     
  13 O13           10.4621    11.4518     7.3867 O.2     
  14 N14            9.9097     9.2999     7.3806 N.am    
  15 N15            6.9403     8.8960     5.6357 N.3     
  16 C16            7.9947     9.8650     5.9634 C.3     
  17 C17            8.4807     9.6220     7.3952 C.3     
  18 C18            7.6951     8.4475     7.9919 C.3     
  19 C19            7.9234     7.2102     7.1145 C.3     
  20 C20            7.4523     7.5197     5.6907 C.3     
  21 C21            5.7785     9.0606     6.5202 C.3     
  22 C22            6.2014     8.7954     7.9679 C.3     
  23 H23           15.8021     7.1913     7.3148 H       
  24 H24           17.9087     8.4440     7.3022 H       
  25 H25           17.8875    10.9064     7.3156 H       
  26 H26           15.7862    12.1255     7.3403 H       
  27 H27           13.0459    11.9347     7.3723 H       
  28 H28           10.1981     8.3738     7.3731 H       
  29 H29            8.8279     9.7438     5.2711 H       
  30 H30            7.5973    10.8766     5.8810 H       
  31 H31            8.3120    10.5164     7.9949 H       
  32 H32            8.0299     8.2516     9.0105 H       
  33 H33            8.9847     6.9620     7.1022 H       
  34 H34            7.3546     6.3700     7.5128 H       
  35 H35            6.6601     6.8254     5.4107 H       
  36 H36            8.2890     7.4151     5.0000 H       
  37 H37            5.3965    10.0778     6.4334 H       
  38 H38            5.0000     8.3536     6.2335 H       
  39 H39            5.6257     7.9616     8.3696 H       
  40 H40            6.0244     9.6872     8.5692 H       
@<TRIPOS>BOND
   1    1    2 1
   2    3    4 ar
   3    3    8 ar
   4    3   11 1
   5    4    5 ar
   6    4    9 1
   7    5    6 ar
   8    5   23 1
   9    6    7 ar
  10    6   24 1
  11    7    8 ar
  12    7   25 1
  13    8   26 1
  14    9   10 1
  15   10   11 2
  16   10   12 1
  17   11   27 1
  18   12   13 2
  19   12   14 am
  20   14   17 1
  21   14   28 1
  22   15   16 1
  23   15   20 1
  24   15   21 1
  25   16   17 1
  26   16   29 1
  27   16   30 1
  28   17   18 1
  29   17   31 1
  30   18   19 1
  31   18   22 1
  32   18   32 1
  33   19   20 1
  34   19   33 1
  35   19   34 1
  36   20   35 1
  37   20   36 1
  38   21   22 1
  39   21   37 1
  40   21   38 1
  41   22   39 1
  42   22   40 1

#	End of record

