#	Name: ASD01900042
#	Creating user name:	WinNT
#	Creation time:	15. 06. 2019 19:51

#	Modifying user name:	WinNT
#	Modification time:	15. 06. 2019 19:51

#	Program:	/corina/corina34_cracker 3.40 0067  02.08.2006

@<TRIPOS>MOLECULE
ASD01900042
  29   30    0    0    0
SMALL
NO_CHARGES


@<TRIPOS>ATOM
   1 C1            -0.0288     1.5329     0.0243 C.3     
   2 C2            -0.0053    -0.0047     0.0120 C.3     
   3 C3            -1.0582    -0.6174    -0.8753 C.2     
   4 O4            -1.8202     0.0955    -1.4934 O.2     
   5 O5            -0.6865     3.4494     1.4349 O.3     
   6 C6            -0.6049     2.1177     1.2881 C.2     
   7 O7            -0.9933     1.3878     2.1692 O.2     
   8 N8            -1.1531    -1.9576    -0.9818 N.am    
   9 C9            -2.1986    -2.5288    -1.7155 C.ar    
  10 C10           -1.9855    -3.6961    -2.4368 C.ar    
  11 C11           -3.0203    -4.2587    -3.1604 C.ar    
  12 C12           -4.2675    -3.6593    -3.1669 C.ar    
  13 C13           -4.4825    -2.4960    -2.4490 C.ar    
  14 C14           -3.4527    -1.9325    -1.7191 C.ar    
  15 Cl15          -6.0487    -1.7472    -2.4597 Cl      
  16 Cl16          -2.7547    -5.7180    -4.0624 Cl      
  17 C17            1.5080     1.4780     0.0157 C.3     
  18 C18            1.3767     0.1000    -0.6542 C.3     
  19 H19           -0.4552     1.9703    -0.8784 H       
  20 H20            0.0206    -0.4490     1.0070 H       
  21 H21           -1.0633     3.7775     2.2629 H       
  22 H22           -0.4965    -2.5262    -0.5499 H       
  23 H23           -1.0121    -4.1639    -2.4326 H       
  24 H24           -5.0745    -4.1000    -3.7335 H       
  25 H25           -3.6210    -1.0248    -1.1587 H       
  26 H26            1.9682     2.2319    -0.6230 H       
  27 H27            1.9491     1.4391     1.0117 H       
  28 H28            2.0947    -0.6337    -0.2878 H       
  29 H29            1.3346     0.1458    -1.7424 H       
@<TRIPOS>BOND
   1    1    2 1
   2    1   17 1
   3    1    6 1
   4    1   19 1
   5    2    3 1
   6    2   18 1
   7    2   20 1
   8    3    4 2
   9    3    8 am
  10    5    6 1
  11    5   21 1
  12    6    7 2
  13    8    9 1
  14    8   22 1
  15    9   10 ar
  16    9   14 ar
  17   10   11 ar
  18   10   23 1
  19   11   12 ar
  20   11   16 1
  21   12   13 ar
  22   12   24 1
  23   13   14 ar
  24   13   15 1
  25   14   25 1
  26   17   18 1
  27   17   26 1
  28   17   27 1
  29   18   28 1
  30   18   29 1

#	End of record

