#	Name: ASD05213003
#	Creating user name:	WinNT
#	Creation time:	15. 06. 2019 20:57

#	Modifying user name:	WinNT
#	Modification time:	15. 06. 2019 20:57

#	Program:	/corina/corina34_cracker 3.40 0067  02.08.2006

@<TRIPOS>MOLECULE
ASD05213003
  42   44    0    0    0
SMALL
NO_CHARGES


@<TRIPOS>ATOM
   1 C1            -0.0170     1.4008     0.0097 C.ar    
   2 C2             0.0021    -0.0041     0.0020 C.ar    
   3 C3             1.2468    -0.6821    -0.0136 C.ar    
   4 C4             2.4374     0.0638    -0.0218 C.ar    
   5 C5             2.3802     1.4239    -0.0148 C.ar    
   6 C6             1.1567     2.0903     0.0022 C.ar    
   7 C7             3.6593     2.2206    -0.0232 C.3     
   8 C8             4.0722     2.4930    -1.4467 C.2     
   9 N9             5.1946     3.1947    -1.7004 N.am    
  10 C10            5.5744     3.4453    -3.0102 C.2     
  11 S11            4.7132     2.9243    -4.3857 S.3     
  12 C12            5.8698     3.6567    -5.4832 C.2     
  13 C13            6.8429     4.2551    -4.8112 C.2     
  14 C14            6.6910     4.1510    -3.3765 C.2     
  15 C15            7.6357     4.7304    -2.4165 C.2     
  16 O16            7.4722     5.8666    -2.0119 O.2     
  17 N17            8.6851     4.0049    -1.9821 N.am    
  18 O18            3.3945     2.0806    -2.3641 O.2     
  19 C19           -1.1889    -0.7504     0.0099 C.ar    
  20 C20           -1.1315    -2.1100     0.0024 C.ar    
  21 C21            0.0924    -2.7767    -0.0125 C.ar    
  22 C22            1.2658    -2.0874    -0.0209 C.ar    
  23 C23            5.7707     3.6107    -6.9863 C.3     
  24 C24            7.9885     4.9753    -5.4744 C.3     
  25 H25           -0.9579     1.9308     0.0171 H       
  26 H26            3.3931    -0.4392    -0.0333 H       
  27 H27            1.1392     3.1702     0.0071 H       
  28 H28            3.5021     3.1657     0.4966 H       
  29 H29            4.4431     1.6549     0.4805 H       
  30 H30            5.7366     3.5244    -0.9666 H       
  31 H31            8.8155     3.0994    -2.3045 H       
  32 H32            9.3101     4.3882    -1.3470 H       
  33 H33           -2.1446    -0.2475     0.0222 H       
  34 H34           -2.0482    -2.6811     0.0085 H       
  35 H35            0.1099    -3.8565    -0.0174 H       
  36 H36            2.2067    -2.6175    -0.0328 H       
  37 H37            4.8770     3.0573    -7.2747 H       
  38 H38            5.7113     4.6263    -7.3777 H       
  39 H39            6.6521     3.1153    -7.3935 H       
  40 H40            7.7219     6.0215    -5.6245 H       
  41 H41            8.8728     4.9132    -4.8401 H       
  42 H42            8.1996     4.5123    -6.4383 H       
@<TRIPOS>BOND
   1    1    2 ar
   2    1    6 ar
   3    1   25 1
   4    2    3 ar
   5    2   19 ar
   6    3    4 ar
   7    3   22 ar
   8    4    5 ar
   9    4   26 1
  10    5    6 ar
  11    5    7 1
  12    6   27 1
  13    7    8 1
  14    7   28 1
  15    7   29 1
  16    8    9 am
  17    8   18 2
  18    9   10 1
  19    9   30 1
  20   10   11 1
  21   10   14 2
  22   11   12 1
  23   12   13 2
  24   12   23 1
  25   13   14 1
  26   13   24 1
  27   14   15 1
  28   15   16 2
  29   15   17 am
  30   17   31 1
  31   17   32 1
  32   19   20 ar
  33   19   33 1
  34   20   21 ar
  35   20   34 1
  36   21   22 ar
  37   21   35 1
  38   22   36 1
  39   23   37 1
  40   23   38 1
  41   23   39 1
  42   24   40 1
  43   24   41 1
  44   24   42 1

#	End of record

