#	Name: ASD03090945
#	Creating user name:	WinNT
#	Creation time:	15. 06. 2019 20:29

#	Modifying user name:	WinNT
#	Modification time:	15. 06. 2019 20:29

#	Program:	/corina/corina34_cracker 3.40 0067  02.08.2006

@<TRIPOS>MOLECULE
ASD03090945
  55   58    0    0    0
SMALL
NO_CHARGES


@<TRIPOS>ATOM
   1 N1            -0.4538     1.1239     0.0299 N.am    
   2 C2            -0.2882    -0.2136     0.0173 C.2     
   3 O3            -1.2609    -0.9481     0.0144 O.2     
   4 N4             0.9422    -0.7343     0.0080 N.2     
   5 S5            -0.1296    -3.2548    -0.0112 S.3     
   6 C6             1.1057    -2.0551    -0.0045 C.2     
   7 N7             2.2804    -2.7344    -0.0150 N.pl3   
   8 C8             2.2058    -4.0939    -0.0274 C.2     
   9 C9             0.9913    -4.6271    -0.0280 C.2     
  10 O10            7.1396    -0.0798    -0.0205 O.3     
  11 C11            8.2771    -0.7899     0.4812 C.3     
  12 C12            8.2759    -2.1955    -0.1348 C.3     
  13 O13            7.0597    -2.8494     0.2434 O.3     
  14 C14            5.9120    -2.1289     0.1150 C.ar    
  15 C15            5.9513    -0.7451    -0.0149 C.ar    
  16 C16            4.6929    -2.7883     0.1139 C.ar    
  17 C17            3.5136    -2.0673    -0.0137 C.ar    
  18 C18            3.5559    -0.6858    -0.1405 C.ar    
  19 C19            4.7710    -0.0282    -0.1410 C.ar    
  20 F20            8.3464    -2.0999    -1.5288 F       
  21 F21            9.3711    -2.9219     0.3449 F       
  22 F22            9.4498    -0.1177     0.1204 F       
  23 F23            8.1968    -0.8854     1.8746 F       
  24 C24            0.6388    -6.0923    -0.0408 C.3     
  25 C25            0.7152     2.0068     0.0335 C.3     
  26 C26            0.7480     2.8149    -1.2653 C.3     
  27 C27            0.6298     2.9614     1.2261 C.3     
  28 C28           -1.8030     1.6949     0.0341 C.3     
  29 C29           -2.3305     1.7272     1.4453 C.ar    
  30 C30           -2.2468     2.8901     2.1881 C.ar    
  31 C31           -2.7307     2.9197     3.4826 C.ar    
  32 C32           -3.2986     1.7866     4.0343 C.ar    
  33 C33           -3.3830     0.6239     3.2913 C.ar    
  34 C34           -2.9031     0.5956     1.9952 C.ar    
  35 H35            3.0935    -4.7090    -0.0363 H       
  36 H36            4.6604    -3.8632     0.2133 H       
  37 H37            2.6384    -0.1245    -0.2388 H       
  38 H38            4.8016     1.0469    -0.2394 H       
  39 H39           -0.4454    -6.2052    -0.0387 H       
  40 H40            1.0508    -6.5573    -0.9364 H       
  41 H41            1.0559    -6.5741     0.8435 H       
  42 H42            1.6226     1.4079     0.1117 H       
  43 H43           -0.1594     3.4138    -1.3436 H       
  44 H44            1.6178     3.4718    -1.2627 H       
  45 H45            0.8088     2.1348    -2.1149 H       
  46 H46            0.6601     2.3886     2.1529 H       
  47 H47            1.4717     3.6532     1.1988 H       
  48 H48           -0.3033     3.5226     1.1761 H       
  49 H49           -1.7696     2.7088    -0.3646 H       
  50 H50           -2.4586     1.0825    -0.5850 H       
  51 H51           -1.8032     3.7754     1.7570 H       
  52 H52           -2.6647     3.8280     4.0631 H       
  53 H53           -3.6759     1.8095     5.0460 H       
  54 H54           -3.8264    -0.2614     3.7225 H       
  55 H55           -2.9725    -0.3117     1.4135 H       
@<TRIPOS>BOND
   1    1    2 am
   2    1   25 1
   3    1   28 1
   4    2    3 2
   5    2    4 1
   6    4    6 2
   7    5    6 1
   8    5    9 1
   9    6    7 1
  10    7    8 1
  11    7   17 1
  12    8    9 2
  13    8   35 1
  14    9   24 1
  15   10   11 1
  16   10   15 1
  17   11   12 1
  18   11   22 1
  19   11   23 1
  20   12   13 1
  21   12   20 1
  22   12   21 1
  23   13   14 1
  24   14   15 ar
  25   14   16 ar
  26   15   19 ar
  27   16   17 ar
  28   16   36 1
  29   17   18 ar
  30   18   19 ar
  31   18   37 1
  32   19   38 1
  33   24   39 1
  34   24   40 1
  35   24   41 1
  36   25   26 1
  37   25   27 1
  38   25   42 1
  39   26   43 1
  40   26   44 1
  41   26   45 1
  42   27   46 1
  43   27   47 1
  44   27   48 1
  45   28   29 1
  46   28   49 1
  47   28   50 1
  48   29   30 ar
  49   29   34 ar
  50   30   31 ar
  51   30   51 1
  52   31   32 ar
  53   31   52 1
  54   32   33 ar
  55   32   53 1
  56   33   34 ar
  57   33   54 1
  58   34   55 1

#	End of record

