#	Name: ASD01813994
#	Creating user name:	WinNT
#	Creation time:	15. 06. 2019 19:31

#	Modifying user name:	WinNT
#	Modification time:	15. 06. 2019 19:31

#	Program:	/corina/corina34_cracker 3.40 0067  02.08.2006

@<TRIPOS>MOLECULE
ASD01813994
  44   47    0    0    0
SMALL
NO_CHARGES


@<TRIPOS>ATOM
   1 C1             0.0263     1.4255    -0.0061 C.ar    
   2 C2             0.0283     0.0393    -0.0135 C.ar    
   3 C3             1.2137    -0.6642    -0.0230 C.ar    
   4 C4             2.4277     0.0161    -0.0258 C.ar    
   5 C5             2.4264     1.4218    -0.0188 C.ar    
   6 C6             1.2181     2.1230    -0.0087 C.ar    
   7 N7             3.6189    -0.6775    -0.0348 N.pl3   
   8 C8             4.8124    -0.0698    -0.0370 C.2     
   9 C9             4.9378     1.3045    -0.0308 C.2     
  10 C10            3.7186     2.1299    -0.0219 C.2     
  11 F11            1.2157     3.4740    -0.0020 F       
  12 O12            3.7758     3.3471    -0.0166 O.2     
  13 C13            6.2660     1.9336    -0.0325 C.2     
  14 O14            6.3754     3.2772    -0.0264 O.3     
  15 O15            7.2659     1.2423    -0.0394 O.2     
  16 C16            3.5775    -2.1419    -0.0418 C.3     
  17 C17            3.5567    -2.6371    -1.4649 C.ar    
  18 C18            4.7451    -2.8975    -2.1223 C.ar    
  19 C19            4.7293    -3.3514    -3.4266 C.ar    
  20 C20            3.5184    -3.5466    -4.0778 C.ar    
  21 C21            2.3268    -3.2846    -3.4147 C.ar    
  22 C22            2.3491    -2.8354    -2.1088 C.ar    
  23 N23            3.4991    -4.0060    -5.3995 N.am    
  24 C24            4.5768    -4.1877    -6.1739 C.2     
  25 N25            4.2926    -4.6364    -7.4036 N.am    
  26 C26            2.8368    -4.7985    -7.5341 C.3     
  27 C27            2.2928    -4.3719    -6.1569 C.3     
  28 O28            5.7105    -3.9651    -5.7951 O.2     
  29 H29           -0.9109     1.9621    -0.0029 H       
  30 H30           -0.9099    -0.4957    -0.0113 H       
  31 H31            1.2002    -1.7441    -0.0279 H       
  32 H32            5.7065    -0.6755    -0.0434 H       
  33 H33            7.2698     3.6448    -0.0279 H       
  34 H34            4.4593    -2.5327     0.4660 H       
  35 H35            2.6801    -2.4826     0.4746 H       
  36 H36            5.6865    -2.7455    -1.6153 H       
  37 H37            5.6578    -3.5540    -3.9397 H       
  38 H38            1.3834    -3.4350    -3.9185 H       
  39 H39            1.4227    -2.6318    -1.5925 H       
  40 H40            4.9435    -4.8246    -8.0976 H       
  41 H41            2.4488    -4.1508    -8.3203 H       
  42 H42            2.5843    -5.8396    -7.7354 H       
  43 H43            1.7705    -5.2004    -5.6785 H       
  44 H44            1.6340    -3.5092    -6.2562 H       
@<TRIPOS>BOND
   1    1    2 ar
   2    1    6 ar
   3    1   29 1
   4    2    3 ar
   5    2   30 1
   6    3    4 ar
   7    3   31 1
   8    4    5 ar
   9    4    7 1
  10    5    6 ar
  11    5   10 1
  12    6   11 1
  13    7    8 1
  14    7   16 1
  15    8    9 2
  16    8   32 1
  17    9   10 1
  18    9   13 1
  19   10   12 2
  20   13   14 1
  21   13   15 2
  22   14   33 1
  23   16   17 1
  24   16   34 1
  25   16   35 1
  26   17   18 ar
  27   17   22 ar
  28   18   19 ar
  29   18   36 1
  30   19   20 ar
  31   19   37 1
  32   20   21 ar
  33   20   23 1
  34   21   22 ar
  35   21   38 1
  36   22   39 1
  37   23   24 am
  38   23   27 1
  39   24   25 am
  40   24   28 2
  41   25   26 1
  42   25   40 1
  43   26   27 1
  44   26   41 1
  45   26   42 1
  46   27   43 1
  47   27   44 1

#	End of record

