#	Name: ASD01900830
#	Creating user name:	WinNT
#	Creation time:	15. 06. 2019 19:52

#	Modifying user name:	WinNT
#	Modification time:	15. 06. 2019 19:52

#	Program:	/corina/corina34_cracker 3.40 0067  02.08.2006

@<TRIPOS>MOLECULE
ASD01900830
  63   68    0    0    0
SMALL
NO_CHARGES


@<TRIPOS>ATOM
   1 C1             2.2568     0.3677     0.3242 C.ar    
   2 C2             2.6819    -0.9343     0.1643 C.ar    
   3 C3             4.0065    -1.2089    -0.1432 C.ar    
   4 C4             4.9220    -0.1826    -0.2866 C.ar    
   5 C5             4.5121     1.1293    -0.1231 C.ar    
   6 C6             3.1668     1.4118     0.1743 C.ar    
   7 N7             5.3996     2.1935    -0.2380 N.pl3   
   8 C8             4.8887     3.4967    -0.6779 C.3     
   9 N9             3.6240     3.7986    -0.0064 N.am    
  10 C10            2.7609     2.8193     0.3290 C.2     
  11 C11            3.3051     5.1288     0.2936 C.ar    
  12 C12            3.8976     5.7570     1.3811 C.ar    
  13 C13            3.5830     7.0688     1.6759 C.ar    
  14 C14            2.6754     7.7592     0.8860 C.ar    
  15 C15            2.0827     7.1322    -0.2003 C.ar    
  16 C16            2.4006     5.8222    -0.4998 C.ar    
  17 O17            2.3661     9.0509     1.1770 O.3     
  18 O18            1.6558     3.0954     0.7556 O.2     
  19 Br19           4.5648    -3.0017    -0.3675 Br      
  20 C20            5.9156     4.5819    -0.3410 C.3     
  21 C21            4.6683     3.4687    -2.1930 C.3     
  22 C22            4.2007     4.8490    -2.6602 C.3     
  23 N23            5.2135     5.8539    -2.3129 N.3     
  24 C24            5.4110     5.9305    -0.8599 C.3     
  25 C25            4.8622     7.1685    -2.8664 C.3     
  26 C26            5.8689     8.1919    -2.4080 C.ar    
  27 C27            5.5485     9.0757    -1.4224 C.ar    
  28 C28            6.4656    10.0292    -0.9850 C.ar    
  29 C29            7.7118    10.1066    -1.5303 C.ar    
  30 C30            8.0767     9.2132    -2.5471 C.ar    
  31 C31            7.1453     8.2376    -2.9894 C.ar    
  32 C32            9.3473     9.2420    -3.1508 C.ar    
  33 C33            9.6246     8.3401    -4.1327 C.ar    
  34 N34            8.7336     7.4422    -4.5309 N.ar    
  35 C35            7.5347     7.3490    -4.0049 C.ar    
  36 C36            1.4481     9.7108     0.3030 C.3     
  37 F37            0.2259     9.0301     0.3102 F       
  38 F38            1.2522    11.0256     0.7391 F       
  39 F39            1.9675     9.7229    -0.9960 F       
  40 H40            1.2238     0.5769     0.5597 H       
  41 H41            1.9788    -1.7459     0.2796 H       
  42 H42            5.9520    -0.4035    -0.5247 H       
  43 H43            6.3401     2.0763    -0.0314 H       
  44 H44            4.6040     5.2195     1.9964 H       
  45 H45            4.0435     7.5573     2.5219 H       
  46 H46            1.3759     7.6702    -0.8146 H       
  47 H47            1.9428     5.3357    -1.3484 H       
  48 H48            6.0489     4.6342     0.7396 H       
  49 H49            6.8674     4.3423    -0.8150 H       
  50 H50            5.6029     3.2127    -2.6921 H       
  51 H51            3.9091     2.7254    -2.4367 H       
  52 H52            4.0564     4.8371    -3.7405 H       
  53 H53            3.2591     5.0983    -2.1709 H       
  54 H54            4.4648     6.1744    -0.3770 H       
  55 H55            6.1445     6.7043    -0.6333 H       
  56 H56            4.8663     7.1172    -3.9552 H       
  57 H57            3.8692     7.4550    -2.5199 H       
  58 H58            4.5674     9.0371    -0.9727 H       
  59 H59            6.1842    10.7176    -0.2019 H       
  60 H60            8.4129    10.8507    -1.1822 H       
  61 H61           10.0877     9.9651    -2.8420 H       
  62 H62           10.5977     8.3568    -4.6007 H       
  63 H63            6.8438     6.6000    -4.3626 H       
@<TRIPOS>BOND
   1    1    2 ar
   2    1    6 ar
   3    1   40 1
   4    2    3 ar
   5    2   41 1
   6    3    4 ar
   7    3   19 1
   8    4    5 ar
   9    4   42 1
  10    5    7 1
  11    5    6 ar
  12    6   10 1
  13    7    8 1
  14    7   43 1
  15    8    9 1
  16    8   21 1
  17    8   20 1
  18    9   10 am
  19    9   11 1
  20   10   18 2
  21   11   12 ar
  22   11   16 ar
  23   12   13 ar
  24   12   44 1
  25   13   14 ar
  26   13   45 1
  27   14   15 ar
  28   14   17 1
  29   15   16 ar
  30   15   46 1
  31   16   47 1
  32   17   36 1
  33   20   24 1
  34   20   48 1
  35   20   49 1
  36   21   22 1
  37   21   50 1
  38   21   51 1
  39   22   23 1
  40   22   52 1
  41   22   53 1
  42   23   24 1
  43   23   25 1
  44   24   54 1
  45   24   55 1
  46   25   26 1
  47   25   56 1
  48   25   57 1
  49   26   27 ar
  50   26   31 ar
  51   27   28 ar
  52   27   58 1
  53   28   29 ar
  54   28   59 1
  55   29   30 ar
  56   29   60 1
  57   30   32 ar
  58   30   31 ar
  59   31   35 ar
  60   32   33 ar
  61   32   61 1
  62   33   34 ar
  63   33   62 1
  64   34   35 ar
  65   35   63 1
  66   36   37 1
  67   36   38 1
  68   36   39 1

#	End of record

