#	Name: ASD01918094
#	Creating user name:	WinNT
#	Creation time:	15. 06. 2019 20:10

#	Modifying user name:	WinNT
#	Modification time:	15. 06. 2019 20:10

#	Program:	/corina/corina34_cracker 3.40 0067  02.08.2006

@<TRIPOS>MOLECULE
ASD01918094
  38   41    0    0    0
SMALL
NO_CHARGES


@<TRIPOS>ATOM
   1 N1             4.8198    -0.4117    -2.1417 N.ar    
   2 C2             5.2869     0.2863    -3.1580 C.ar    
   3 C3             5.1749     1.6654    -3.1836 C.ar    
   4 C4             4.5621     2.3139    -2.1226 C.ar    
   5 C5             4.0809     1.5454    -1.0671 C.ar    
   6 C6             4.2307     0.1669    -1.1140 C.ar    
   7 O7             3.4733     2.1368    -0.0051 O.3     
   8 C8             3.4545     3.4961     0.0445 C.2     
   9 N9             2.2033     5.5121    -0.0211 N.pl3   
  10 C10            2.2732     4.1515    -0.0649 C.2     
  11 C11            4.6560     4.1967     0.2135 C.2     
  12 C12            4.6315     5.5849     0.2635 C.2     
  13 C13            3.3389     6.2634     0.1362 C.2     
  14 C14            5.8733     6.3551     0.4404 C.2     
  15 N15            5.8305     7.7014     0.4866 N.am    
  16 O16            6.9382     5.7765     0.5449 O.2     
  17 C17            1.1549     6.3894    -0.1066 C.2     
  18 C18            1.6684     7.6342    -0.0094 C.2     
  19 N19            2.9931     7.5380     0.1439 N.2     
  20 Cl20           5.7948     2.5724    -4.5278 Cl      
  21 C21            6.9885     8.4261     0.7594 C.ar    
  22 N22            8.1476     7.7952     0.8649 N.ar    
  23 C23            6.9173     9.8061     0.9126 C.ar    
  24 C24            8.0753    10.5139     1.1829 C.ar    
  25 C25            9.2692     9.8142     1.2910 C.ar    
  26 C26            9.2673     8.4434     1.1217 C.ar    
  27 H27            5.7636    -0.2250    -3.9813 H       
  28 H28            4.4609     3.3892    -2.1152 H       
  29 H29            3.8608    -0.4387    -0.2999 H       
  30 H30            1.3645     3.5814    -0.1902 H       
  31 H31            5.5908     3.6635     0.3043 H       
  32 H32            4.9934     8.1657     0.3300 H       
  33 H33            0.1135     6.1336    -0.2349 H       
  34 H34            1.1026     8.5536    -0.0408 H       
  35 H35            5.9711    10.3188     0.8216 H       
  36 H36            8.0508    11.5865     1.3065 H       
  37 H37           10.1908    10.3367     1.5009 H       
  38 H38           10.1944     7.8952     1.2012 H       
@<TRIPOS>BOND
   1    1    2 ar
   2    1    6 ar
   3    2    3 ar
   4    2   27 1
   5    3    4 ar
   6    3   20 1
   7    4    5 ar
   8    4   28 1
   9    5    6 ar
  10    5    7 1
  11    6   29 1
  12    7    8 1
  13    8   11 1
  14    8   10 2
  15    9   10 1
  16    9   17 1
  17    9   13 1
  18   10   30 1
  19   11   12 2
  20   11   31 1
  21   12   13 1
  22   12   14 1
  23   13   19 2
  24   14   15 am
  25   14   16 2
  26   15   21 1
  27   15   32 1
  28   17   18 2
  29   17   33 1
  30   18   19 1
  31   18   34 1
  32   21   23 ar
  33   21   22 ar
  34   22   26 ar
  35   23   24 ar
  36   23   35 1
  37   24   25 ar
  38   24   36 1
  39   25   26 ar
  40   25   37 1
  41   26   38 1

#	End of record

