#	Name: ASD01630001
#	Creating user name:	WinNT
#	Creation time:	15. 06. 2019 19:22

#	Modifying user name:	WinNT
#	Modification time:	15. 06. 2019 19:22

#	Program:	/corina/corina34_cracker 3.40 0067  02.08.2006

@<TRIPOS>MOLECULE
ASD01630001
   5    4    0    0    0
SMALL
NO_CHARGES


@<TRIPOS>ATOM
   1 C1            -0.0246     1.9617     0.0128 C.3     
   2 Br2            0.0021    -0.0041     0.0020 Br      
   3 Br3            1.8198     2.6422    -0.0011 Br      
   4 Br4           -0.9755     2.6130    -1.5799 Br      
   5 H5            -0.5348     2.3132     0.9096 H       
@<TRIPOS>BOND
   1    1    2 1
   2    1    3 1
   3    1    4 1
   4    1    5 1

#	End of record

