#	Name: ASD06600038
#	Creating user name:	WinNT
#	Creation time:	15. 06. 2019 21:07

#	Modifying user name:	WinNT
#	Modification time:	15. 06. 2019 21:07

#	Program:	/corina/corina34_cracker 3.40 0067  02.08.2006

@<TRIPOS>MOLECULE
ASD06600038
 286  289    0    0    0
SMALL
NO_CHARGES


@<TRIPOS>ATOM
   1 C1            -1.3942     9.2772     5.7160 C.2     
   2 O2            -1.2534     8.1457     6.1291 O.2     
   3 N3             0.8786     9.6299     6.4901 N.am    
   4 C4            -0.2677    10.2705     5.8405 C.3     
   5 C5             0.1407    10.7557     4.4482 C.3     
   6 C6             1.1812    11.8381     4.5785 C.2     
   7 C7             2.3967    11.8413     3.9988 C.2     
   8 N8             3.0130    13.0034     4.3774 N.pl3   
   9 C9             2.1520    13.6703     5.1759 C.2     
  10 N10            1.0567    12.9698     5.2876 N.2     
  11 C11           -4.5393     9.0729     3.8641 C.2     
  12 O12           -4.2857    10.0651     3.2142 O.2     
  13 N13           -2.5561     9.6448     5.1405 N.am    
  14 C14           -3.6491     8.6775     5.0139 C.3     
  15 C15           -4.4655     8.6583     6.3078 C.3     
  16 C16           -7.8646     8.1490     2.6592 C.2     
  17 O17           -8.0629     7.3564     3.5556 O.2     
  18 N18           -5.6172     8.3240     3.5578 N.am    
  19 C19           -6.4826     8.7084     2.4400 C.3     
  20 C20           -5.9082     8.1521     1.1356 C.3     
  21 C21           -4.5631     8.8206     0.8446 C.3     
  22 C22           -5.7084     6.6412     1.2698 C.3     
  23 C23          -10.9543     8.0119     0.7103 C.2     
  24 O24          -10.4365     8.5380    -0.2519 O.2     
  25 N25           -8.8803     8.5295     1.8592 N.am    
  26 C26          -10.2026     7.9178     2.0131 C.3     
  27 C27          -10.9811     8.6540     3.1054 C.3     
  28 C28          -10.2937     8.4567     4.4319 C.2     
  29 C29           -9.8814     9.4332     5.2625 C.2     
  30 N30           -9.3136     8.8183     6.3457 N.pl3   
  31 C31           -9.3988     7.4865     6.1391 C.2     
  32 N32           -9.9906     7.2776     4.9949 N.2     
  33 C33          -14.4146     7.5657    -0.3806 C.2     
  34 O34          -14.8204     7.4722     0.7585 O.2     
  35 N35          -12.2020     7.5113     0.6146 N.am    
  36 C36          -12.9327     7.6027    -0.6519 C.3     
  37 C37          -12.5488     6.4239    -1.5484 C.3     
  38 C38          -17.4508     7.0861    -2.3592 C.2     
  39 O39          -16.8232     6.7796    -3.3507 O.2     
  40 N40          -15.2890     7.6366    -1.4038 N.am    
  41 C41          -16.7296     7.6006    -1.1401 C.3     
  42 C42          -17.2235     9.0112    -0.8128 C.3     
  43 C43          -16.5941     9.4778     0.4745 C.ar    
  44 C44          -15.3892    10.1555     0.4477 C.ar    
  45 C45          -14.8099    10.5838     1.6264 C.ar    
  46 C46          -15.4384    10.3339     2.8377 C.ar    
  47 O47          -14.8708    10.7547     3.9986 O.3     
  48 C48          -16.6475     9.6542     2.8619 C.ar    
  49 C49          -17.2253     9.2325     1.6800 C.ar    
  50 C50          -20.9116     6.9783    -3.5313 C.2     
  51 O51          -21.2981     7.6908    -2.6292 O.2     
  52 N52          -18.7932     6.9665    -2.3476 N.am    
  53 C53          -19.4942     6.4664    -3.5328 C.3     
  54 C54          -19.5045     4.9365    -3.5115 C.3     
  55 C55          -18.0717     4.4151    -3.6386 C.3     
  56 C56          -18.0820     2.8853    -3.6173 C.3     
  57 N57          -16.7101     2.3860    -3.7391 N.pl3   
  58 C58          -16.4690     1.0325    -3.7437 C.2     
  59 N59          -17.4611     0.1935    -3.6397 N.2     
  60 N60          -15.1816     0.5639    -3.8579 N.pl3   
  61 C61          -24.0003     6.2068    -5.3279 C.2     
  62 O62          -23.5187     5.2216    -5.8460 O.2     
  63 N63          -21.7497     6.6443    -4.5326 N.am    
  64 C64          -23.1276     7.1420    -4.5312 C.3     
  65 C65          -23.1669     8.5362    -5.1600 C.3     
  66 C66          -22.3944     9.4991    -4.2956 C.2     
  67 C67          -21.3756    10.2821    -4.6986 C.2     
  68 N68          -20.9663    10.9944    -3.6037 N.pl3   
  69 C69          -21.7498    10.6215    -2.5689 C.2     
  70 N70          -22.6049     9.7307    -2.9913 N.2     
  71 C71          -27.3621     6.3079    -6.7600 C.2     
  72 O72          -27.4942     7.4870    -6.5088 O.2     
  73 N73          -25.3159     6.4652    -5.4649 N.am    
  74 C74          -26.1643     5.5561    -6.2395 C.3     
  75 C75          -26.6328     4.4079    -5.3433 C.3     
  76 C76          -25.4263     3.5699    -4.9156 C.3     
  77 C77          -25.8948     2.4217    -4.0194 C.3     
  78 N78          -24.7396     1.6193    -3.6098 N.pl3   
  79 C79          -24.9161     0.5256    -2.7957 C.2     
  80 N80          -26.1114     0.2027    -2.3882 N.2     
  81 N81          -23.8320    -0.2274    -2.4113 N.pl3   
  82 C82          -30.5840     5.4365    -8.2512 C.2     
  83 O83          -30.4335     4.2550    -8.0222 O.2     
  84 N84          -28.2867     5.6700    -7.5049 N.am    
  85 C85          -29.4511     6.4008    -8.0109 C.3     
  86 C86          -29.0858     7.0958    -9.3241 C.3     
  87 C87          -28.0225     8.1632    -9.0576 C.3     
  88 C88          -27.6572     8.8582   -10.3708 C.3     
  89 N89          -26.6390     9.8802   -10.1156 N.pl3   
  90 C90          -26.1523    10.6397   -11.1531 C.2     
  91 N91          -25.2465    11.5490   -10.9260 N.2     
  92 N92          -26.6211    10.4402   -12.4300 N.pl3   
  93 C93          -33.7952     5.5160    -9.9962 C.2     
  94 O94          -33.5608     6.5965   -10.4947 O.2     
  95 N95          -31.7643     5.8869    -8.7205 N.am    
  96 C96          -32.8656     4.9495    -8.9541 C.3     
  97 C97          -33.6346     4.7308    -7.6495 C.3     
  98 C98          -32.7250     4.0410    -6.6308 C.3     
  99 C99          -33.4513     3.9345    -5.2884 C.3     
 100 C100         -32.3698     2.6394    -7.1311 C.3     
 101 C101         -37.1466     4.8472   -11.2586 C.2     
 102 O102         -37.3720     3.9060   -10.5278 O.2     
 103 N103         -34.8869     4.8220   -10.3742 N.am    
 104 C104         -35.7304     5.3198   -11.4637 C.3     
 105 C105         -35.2041     4.7898   -12.7990 C.3     
 106 C106         -35.9824     5.4363   -13.9467 C.3     
 107 C107         -35.6700     6.9333   -13.9951 C.3     
 108 C108         -35.5730     4.7868   -15.2701 C.3     
 109 C109         -40.4148     5.4266   -12.7904 C.2     
 110 O110         -39.9255     5.9488   -13.7696 O.2     
 111 N111         -38.1627     5.4706   -11.8875 N.am    
 112 C112         -39.5468     5.0798   -11.6083 C.3     
 113 C113         -40.0480     5.8270   -10.3709 C.3     
 114 O114         -40.0994     7.2278   -10.6486 O.3     
 115 C115         -44.0015     5.6820   -13.4489 C.2     
 116 O116         -44.2818     5.5483   -12.2813 O.2     
 117 N117         -41.7348     5.1565   -12.7594 N.am    
 118 C118         -42.5787     5.4936   -13.9086 C.3     
 119 C119         -42.5200     4.3600   -14.9344 C.3     
 120 O120         -44.9573     5.9982   -14.3367 O.3     
 121 C121           1.7801    10.3779     7.1566 C.2     
 122 O122           1.6424    11.5813     7.2187 O.2     
 123 C123          17.3703    12.4949    17.3377 C.3     
 124 C124          16.1731    13.1639    16.6593 C.3     
 125 C125          15.3116    12.0984    15.9787 C.3     
 126 C126          14.1144    12.7674    15.3003 C.3     
 127 C127          13.2528    11.7018    14.6197 C.3     
 128 C128          12.0557    12.3708    13.9414 C.3     
 129 C129          11.1941    11.3052    13.2608 C.3     
 130 C130           9.9970    11.9742    12.5824 C.3     
 131 C131           9.1354    10.9087    11.9018 C.3     
 132 C132           7.9383    11.5777    11.2234 C.3     
 133 C133           7.0767    10.5121    10.5428 C.3     
 134 C134           5.8796    11.1811     9.8644 C.3     
 135 C135           5.0180    10.1155     9.1838 C.3     
 136 C136           3.8208    10.7845     8.5054 C.3     
 137 C137           2.9593     9.7190     7.8248 C.3     
 138 H138           0.9887     8.6675     6.4405 H       
 139 H139          -0.5967    11.1198     6.4393 H       
 140 H140           0.5528     9.9222     3.8793 H       
 141 H141          -0.7330    11.1521     3.9308 H       
 142 H142           2.8066    11.0742     3.3585 H       
 143 H143           3.9021    13.2936     4.1202 H       
 144 H144           2.3376    14.6270     5.6415 H       
 145 H145          -2.6687    10.5498     4.8100 H       
 146 H146          -3.2367     7.6854     4.8297 H       
 147 H147          -4.8778     9.6503     6.4920 H       
 148 H148          -5.2786     7.9386     6.2136 H       
 149 H149          -3.8216     8.3722     7.1395 H       
 150 H150          -5.8199     7.5305     4.0776 H       
 151 H151          -6.5360     9.7954     2.3791 H       
 152 H152          -6.5996     8.3560     0.3180 H       
 153 H153          -3.8387     8.5251     1.6037 H       
 154 H154          -4.2075     8.5092    -0.1376 H       
 155 H155          -4.6846     9.9037     0.8605 H       
 156 H156          -6.6667     6.1649     1.4771 H       
 157 H157          -5.2992     6.2448     0.3405 H       
 158 H158          -5.0169     6.4373     2.0874 H       
 159 H159          -8.7358     9.2083     1.1815 H       
 160 H160         -10.0882     6.8703     2.2918 H       
 161 H161         -11.0189     9.7177     2.8704 H       
 162 H162         -11.9949     8.2574     3.1590 H       
 163 H163          -9.9795    10.4971     5.1043 H       
 164 H164          -8.9230     9.2572     7.1175 H       
 165 H165          -9.0403     6.7210     6.8113 H       
 166 H166         -12.6161     7.0905     1.3842 H       
 167 H167         -12.6780     8.5373    -1.1516 H       
 168 H168         -12.8034     5.4893    -1.0487 H       
 169 H169         -13.0924     6.4919    -2.4907 H       
 170 H170         -11.4769     6.4506    -1.7447 H       
 171 H171         -14.9644     7.7114    -2.3148 H       
 172 H172         -16.9280     6.9411    -0.2952 H       
 173 H173         -16.9462     9.6896    -1.6196 H       
 174 H174         -18.3080     9.0003    -0.7039 H       
 175 H175         -14.9003    10.3498    -0.4955 H       
 176 H176         -13.8684    11.1125     1.6050 H       
 177 H177         -15.1394    11.6436     4.2682 H       
 178 H178         -17.1386     9.4581     3.8036 H       
 179 H179         -18.1687     8.7072     1.6979 H       
 180 H180         -19.2951     7.2117    -1.5546 H       
 181 H181         -18.9834     6.8138    -4.4307 H       
 182 H182         -19.9356     4.5891    -2.5726 H       
 183 H183         -20.1014     4.5656    -4.3446 H       
 184 H184         -17.6406     4.7625    -4.5775 H       
 185 H185         -17.4748     4.7861    -2.8055 H       
 186 H186         -18.5131     2.5379    -2.6784 H       
 187 H187         -18.6789     2.5143    -4.4505 H       
 188 H188         -15.9718     3.0104    -3.8165 H       
 189 H189         -17.2910    -0.7615    -3.6429 H       
 190 H190         -14.4433     1.1883    -3.9353 H       
 191 H191         -15.0115    -0.3910    -3.8611 H       
 192 H192         -21.4406     6.0745    -5.2541 H       
 193 H193         -23.4936     7.1954    -3.5058 H       
 194 H194         -22.7191     8.4997    -6.1530 H       
 195 H195         -24.2016     8.8696    -5.2401 H       
 196 H196         -20.9610    10.3373    -5.6943 H       
 197 H197         -20.2477    11.6453    -3.5762 H       
 198 H198         -21.6827    11.0008    -1.5599 H       
 199 H199         -25.7011     7.2532    -5.0505 H       
 200 H200         -25.5954     5.1539    -7.0777 H       
 201 H201         -27.1246     4.8142    -4.4595 H       
 202 H202         -27.3342     3.7806    -5.8934 H       
 203 H203         -24.9345     3.1635    -5.7994 H       
 204 H204         -24.7249     4.1972    -4.3655 H       
 205 H205         -26.3866     2.8280    -3.1356 H       
 206 H206         -26.5962     1.7944    -4.5695 H       
 207 H207         -23.8501     1.8596    -3.9131 H       
 208 H208         -26.2360    -0.5689    -1.8137 H       
 209 H209         -22.9425     0.0129    -2.7146 H       
 210 H210         -23.9566    -0.9991    -1.8369 H       
 211 H211         -28.1811     4.7269    -7.7058 H       
 212 H212         -29.7584     7.1470    -7.2782 H       
 213 H213         -28.6946     6.3609   -10.0276 H       
 214 H214         -29.9743     7.5655    -9.7460 H       
 215 H215         -28.4137     8.8981    -8.3541 H       
 216 H216         -27.1340     7.6935    -8.6357 H       
 217 H217         -27.2659     8.1232   -11.0742 H       
 218 H218         -28.5457     9.3279   -10.7927 H       
 219 H219         -26.3083    10.0210    -9.2147 H       
 220 H220         -24.9031    12.0849   -11.6580 H       
 221 H221         -27.2952     9.7635   -12.5990 H       
 222 H222         -26.2777    10.9761   -13.1620 H       
 223 H223         -31.8847     6.8319    -8.9036 H       
 224 H224         -32.4648     3.9979    -9.3035 H       
 225 H225         -33.9595     5.6930    -7.2536 H       
 226 H226         -34.5055     4.1042    -7.8418 H       
 227 H227         -31.8126     4.6240    -6.5051 H       
 228 H228         -34.3637     3.3515    -5.4142 H       
 229 H229         -32.8033     3.4431    -4.5627 H       
 230 H230         -33.7044     4.9330    -4.9320 H       
 231 H231         -31.8523     2.7153    -8.0875 H       
 232 H232         -31.7217     2.1480    -6.4054 H       
 233 H233         -33.2821     2.0564    -7.2569 H       
 234 H234         -35.1142     3.9930    -9.9248 H       
 235 H235         -35.7085     6.4096   -11.4713 H       
 236 H236         -34.1460     5.0333   -12.8950 H       
 237 H237         -35.3329     3.7081   -12.8367 H       
 238 H238         -37.0511     5.2932   -13.7870 H       
 239 H239         -34.5916     7.0775   -14.0604 H       
 240 H240         -36.1494     7.3764   -14.8680 H       
 241 H241         -36.0466     7.4125   -13.0914 H       
 242 H242         -35.7955     3.7204   -15.2356 H       
 243 H243         -36.1275     5.2474   -16.0877 H       
 244 H244         -34.5043     4.9300   -15.4298 H       
 245 H245         -37.9776     6.1780   -12.5248 H       
 246 H246         -39.5916     4.0059   -11.4273 H       
 247 H247         -41.0450     5.4714   -10.1107 H       
 248 H248         -39.3689     5.6465    -9.5376 H       
 249 H249         -40.4093     7.7648    -9.9065 H       
 250 H250         -42.1262     4.7388   -11.9763 H       
 251 H251         -42.2193     6.4158   -14.3652 H       
 252 H252         -42.8794     3.4378   -14.4778 H       
 253 H253         -43.1478     4.6108   -15.7894 H       
 254 H254         -41.4909     4.2237   -15.2669 H       
 255 H255         -45.8549     6.1088   -13.9946 H       
 256 H256          17.9841    13.2541    17.8226 H       
 257 H257          17.0147    11.7842    18.0837 H       
 258 H258          17.9649    11.9699    16.5901 H       
 259 H259          15.5785    13.6889    17.4069 H       
 260 H260          16.5287    13.8746    15.9133 H       
 261 H261          15.9062    11.5734    15.2311 H       
 262 H262          14.9560    11.3877    16.7248 H       
 263 H263          13.5198    13.2923    16.0479 H       
 264 H264          14.4700    13.4781    14.5543 H       
 265 H265          13.8475    11.1768    13.8721 H       
 266 H266          12.8973    10.9911    15.3658 H       
 267 H267          11.4611    12.8958    14.6889 H       
 268 H268          12.4113    13.0815    13.1953 H       
 269 H269          11.7888    10.7802    12.5132 H       
 270 H270          10.8386    10.5945    14.0068 H       
 271 H271           9.4024    12.4992    13.3300 H       
 272 H272          10.3525    12.6849    11.8363 H       
 273 H273           9.7300    10.3837    11.1542 H       
 274 H274           8.7799    10.1980    12.6478 H       
 275 H275           7.3436    12.1027    11.9710 H       
 276 H276           8.2938    12.2884    10.4774 H       
 277 H277           7.6713     9.9871     9.7952 H       
 278 H278           6.7211     9.8014    11.2888 H       
 279 H279           5.2849    11.7061    10.6120 H       
 280 H280           6.2351    11.8918     9.1184 H       
 281 H281           5.6126     9.5906     8.4362 H       
 282 H282           4.6624     9.4048     9.9298 H       
 283 H283           3.2262    11.3095     9.2530 H       
 284 H284           4.1764    11.4952     7.7594 H       
 285 H285           2.6037     9.0083     8.5709 H       
 286 H286           3.5539     9.1940     7.0772 H       
@<TRIPOS>BOND
   1    1    2 2
   2    1    4 1
   3    1   13 am
   4    3  121 am
   5    3    4 1
   6    3  138 1
   7    4    5 1
   8    4  139 1
   9    5    6 1
  10    5  140 1
  11    5  141 1
  12    6    7 2
  13    6   10 1
  14    7    8 1
  15    7  142 1
  16    8    9 1
  17    8  143 1
  18    9   10 2
  19    9  144 1
  20   11   12 2
  21   11   14 1
  22   11   18 am
  23   13   14 1
  24   13  145 1
  25   14   15 1
  26   14  146 1
  27   15  147 1
  28   15  148 1
  29   15  149 1
  30   16   17 2
  31   16   19 1
  32   16   25 am
  33   18   19 1
  34   18  150 1
  35   19   20 1
  36   19  151 1
  37   20   21 1
  38   20   22 1
  39   20  152 1
  40   21  153 1
  41   21  154 1
  42   21  155 1
  43   22  156 1
  44   22  157 1
  45   22  158 1
  46   23   24 2
  47   23   26 1
  48   23   35 am
  49   25   26 1
  50   25  159 1
  51   26   27 1
  52   26  160 1
  53   27   28 1
  54   27  161 1
  55   27  162 1
  56   28   29 2
  57   28   32 1
  58   29   30 1
  59   29  163 1
  60   30   31 1
  61   30  164 1
  62   31   32 2
  63   31  165 1
  64   33   34 2
  65   33   36 1
  66   33   40 am
  67   35   36 1
  68   35  166 1
  69   36   37 1
  70   36  167 1
  71   37  168 1
  72   37  169 1
  73   37  170 1
  74   38   39 2
  75   38   41 1
  76   38   52 am
  77   40   41 1
  78   40  171 1
  79   41   42 1
  80   41  172 1
  81   42   43 1
  82   42  173 1
  83   42  174 1
  84   43   44 ar
  85   43   49 ar
  86   44   45 ar
  87   44  175 1
  88   45   46 ar
  89   45  176 1
  90   46   47 1
  91   46   48 ar
  92   47  177 1
  93   48   49 ar
  94   48  178 1
  95   49  179 1
  96   50   51 2
  97   50   53 1
  98   50   63 am
  99   52   53 1
 100   52  180 1
 101   53   54 1
 102   53  181 1
 103   54   55 1
 104   54  182 1
 105   54  183 1
 106   55   56 1
 107   55  184 1
 108   55  185 1
 109   56   57 1
 110   56  186 1
 111   56  187 1
 112   57   58 1
 113   57  188 1
 114   58   59 2
 115   58   60 1
 116   59  189 1
 117   60  190 1
 118   60  191 1
 119   61   62 2
 120   61   64 1
 121   61   73 am
 122   63   64 1
 123   63  192 1
 124   64   65 1
 125   64  193 1
 126   65   66 1
 127   65  194 1
 128   65  195 1
 129   66   67 2
 130   66   70 1
 131   67   68 1
 132   67  196 1
 133   68   69 1
 134   68  197 1
 135   69   70 2
 136   69  198 1
 137   71   72 2
 138   71   74 1
 139   71   84 am
 140   73   74 1
 141   73  199 1
 142   74   75 1
 143   74  200 1
 144   75   76 1
 145   75  201 1
 146   75  202 1
 147   76   77 1
 148   76  203 1
 149   76  204 1
 150   77   78 1
 151   77  205 1
 152   77  206 1
 153   78   79 1
 154   78  207 1
 155   79   80 2
 156   79   81 1
 157   80  208 1
 158   81  209 1
 159   81  210 1
 160   82   83 2
 161   82   85 1
 162   82   95 am
 163   84   85 1
 164   84  211 1
 165   85   86 1
 166   85  212 1
 167   86   87 1
 168   86  213 1
 169   86  214 1
 170   87   88 1
 171   87  215 1
 172   87  216 1
 173   88   89 1
 174   88  217 1
 175   88  218 1
 176   89   90 1
 177   89  219 1
 178   90   91 2
 179   90   92 1
 180   91  220 1
 181   92  221 1
 182   92  222 1
 183   93   94 2
 184   93   96 1
 185   93  103 am
 186   95   96 1
 187   95  223 1
 188   96   97 1
 189   96  224 1
 190   97   98 1
 191   97  225 1
 192   97  226 1
 193   98   99 1
 194   98  100 1
 195   98  227 1
 196   99  228 1
 197   99  229 1
 198   99  230 1
 199  100  231 1
 200  100  232 1
 201  100  233 1
 202  101  102 2
 203  101  104 1
 204  101  111 am
 205  103  104 1
 206  103  234 1
 207  104  105 1
 208  104  235 1
 209  105  106 1
 210  105  236 1
 211  105  237 1
 212  106  107 1
 213  106  108 1
 214  106  238 1
 215  107  239 1
 216  107  240 1
 217  107  241 1
 218  108  242 1
 219  108  243 1
 220  108  244 1
 221  109  110 2
 222  109  112 1
 223  109  117 am
 224  111  112 1
 225  111  245 1
 226  112  113 1
 227  112  246 1
 228  113  114 1
 229  113  247 1
 230  113  248 1
 231  114  249 1
 232  115  116 2
 233  115  118 1
 234  115  120 1
 235  117  118 1
 236  117  250 1
 237  118  119 1
 238  118  251 1
 239  119  252 1
 240  119  253 1
 241  119  254 1
 242  120  255 1
 243  121  122 2
 244  121  137 1
 245  123  124 1
 246  123  256 1
 247  123  257 1
 248  123  258 1
 249  124  125 1
 250  124  259 1
 251  124  260 1
 252  125  126 1
 253  125  261 1
 254  125  262 1
 255  126  127 1
 256  126  263 1
 257  126  264 1
 258  127  128 1
 259  127  265 1
 260  127  266 1
 261  128  129 1
 262  128  267 1
 263  128  268 1
 264  129  130 1
 265  129  269 1
 266  129  270 1
 267  130  131 1
 268  130  271 1
 269  130  272 1
 270  131  132 1
 271  131  273 1
 272  131  274 1
 273  132  133 1
 274  132  275 1
 275  132  276 1
 276  133  134 1
 277  133  277 1
 278  133  278 1
 279  134  135 1
 280  134  279 1
 281  134  280 1
 282  135  136 1
 283  135  281 1
 284  135  282 1
 285  136  137 1
 286  136  283 1
 287  136  284 1
 288  137  285 1
 289  137  286 1

#	End of record

