#	Name: ASD08170026
#	Creating user name:	WinNT
#	Creation time:	15. 06. 2019 21:17

#	Modifying user name:	WinNT
#	Modification time:	15. 06. 2019 21:17

#	Program:	/corina/corina34_cracker 3.40 0067  02.08.2006

@<TRIPOS>MOLECULE
ASD08170026
  49   51    0    0    0
SMALL
NO_CHARGES


@<TRIPOS>ATOM
   1 C1            -0.0184     1.5028     0.0103 C.3     
   2 C2             0.0021    -0.0041     0.0020 C.2     
   3 C3            -1.1370    -2.0844     0.0017 C.2     
   4 N4            -0.0714    -2.8270    -0.0120 N.2     
   5 N5            -0.2299    -4.0795    -0.0121 N.2     
   6 C6            -1.4517    -4.5090     0.0016 C.2     
   7 S7            -2.5151    -3.1018     0.0163 S.3     
   8 C8            -1.8867    -5.9519     0.0039 C.3     
   9 C9            -2.0174    -6.4428     1.4471 C.3     
  10 C10           -2.4590    -7.9077     1.4495 C.3     
  11 C11           -2.5897    -8.3986     2.8928 C.3     
  12 C12           -3.0246    -9.8415     2.8951 C.2     
  13 S13           -4.6903   -10.4244     2.9132 S.3     
  14 C14           -4.0748   -12.0786     2.9031 C.2     
  15 N15           -2.7740   -12.0161     2.8883 N.2     
  16 N16           -2.2437   -10.8721     2.8787 N.2     
  17 N17           -4.8387   -13.2363     2.9098 N.pl3   
  18 O18            1.0605    -0.5961    -0.0113 O.2     
  19 N19           -1.1558    -0.6938     0.0094 N.am    
  20 C20            1.4170     2.0324    -0.0006 C.3     
  21 C21            1.3970     3.5577    -0.1179 C.3     
  22 C22            2.8324     4.0873    -0.1288 C.3     
  23 C23            3.5343     3.6849     1.1698 C.3     
  24 C24            3.5543     2.1595     1.2871 C.3     
  25 C25            2.1189     1.6299     1.2980 C.3     
  26 H26           -0.5455     1.8639    -0.8728 H       
  27 H27           -0.5286     1.8543     0.9071 H       
  28 H28           -2.8495    -6.0420    -0.4991 H       
  29 H29           -1.1454    -6.5557    -0.5195 H       
  30 H30           -1.0546    -6.3528     1.9501 H       
  31 H31           -2.7586    -5.8390     1.9706 H       
  32 H32           -3.4218    -7.9977     0.9466 H       
  33 H33           -1.7177    -8.5115     0.9261 H       
  34 H34           -1.6268    -8.3085     3.3957 H       
  35 H35           -3.3309    -7.7948     3.4162 H       
  36 H36           -5.8069   -13.1785     2.9210 H       
  37 H37           -4.4047   -14.1038     2.9033 H       
  38 H38           -2.0023    -0.2203     0.0200 H       
  39 H39            1.9538     1.6096    -0.8498 H       
  40 H40            0.8969     3.8444    -1.0430 H       
  41 H41            0.8602     3.9804     0.7314 H       
  42 H42            3.3692     3.6646    -0.9780 H       
  43 H43            2.8181     5.1740    -0.2124 H       
  44 H44            4.5569     4.0622     1.1621 H       
  45 H45            2.9975     4.1076     2.0191 H       
  46 H46            4.0911     1.7368     0.4379 H       
  47 H47            4.0544     1.8728     2.2123 H       
  48 H48            1.5821     2.0526     2.1473 H       
  49 H49            2.1332     0.5432     1.3816 H       
@<TRIPOS>BOND
   1    1    2 1
   2    1   20 1
   3    1   26 1
   4    1   27 1
   5    2   18 2
   6    2   19 am
   7    3    4 2
   8    3    7 1
   9    3   19 1
  10    4    5 1
  11    5    6 2
  12    6    7 1
  13    6    8 1
  14    8    9 1
  15    8   28 1
  16    8   29 1
  17    9   10 1
  18    9   30 1
  19    9   31 1
  20   10   11 1
  21   10   32 1
  22   10   33 1
  23   11   12 1
  24   11   34 1
  25   11   35 1
  26   12   13 1
  27   12   16 2
  28   13   14 1
  29   14   15 2
  30   14   17 1
  31   15   16 1
  32   17   36 1
  33   17   37 1
  34   19   38 1
  35   20   21 1
  36   20   25 1
  37   20   39 1
  38   21   22 1
  39   21   40 1
  40   21   41 1
  41   22   23 1
  42   22   42 1
  43   22   43 1
  44   23   24 1
  45   23   44 1
  46   23   45 1
  47   24   25 1
  48   24   46 1
  49   24   47 1
  50   25   48 1
  51   25   49 1

#	End of record

