#	Name: ASD05313205
#	Creating user name:	WinNT
#	Creation time:	15. 06. 2019 20:58

#	Modifying user name:	WinNT
#	Modification time:	15. 06. 2019 20:58

#	Program:	/corina/corina34_cracker 3.40 0067  02.08.2006

@<TRIPOS>MOLECULE
ASD05313205
  39   42    0    0    0
SMALL
NO_CHARGES


@<TRIPOS>ATOM
   1 C1            -0.2675     0.4843     1.5689 C.1     
   2 C2            -0.1511     1.6700     0.7745 C.ar    
   3 C3             1.0475     2.3831     0.7488 C.ar    
   4 C4             1.1538     3.5271    -0.0207 C.ar    
   5 C5             0.0771     3.9714    -0.7677 C.ar    
   6 C6            -1.1179     3.2783    -0.7546 C.ar    
   7 C7            -1.2440     2.1207     0.0096 C.ar    
   8 N8            -0.3598    -0.4564     2.1992 N.1     
   9 C9            -2.5190     1.3730     0.0219 C.2     
  10 O10           -2.5136     0.1608    -0.0680 O.2     
  11 C11           -4.7708     3.7534     1.4099 C.2     
  12 C12           -3.7150     3.4923     0.3623 C.3     
  13 N13           -5.6578     2.8191     1.8338 N.pl3   
  14 N14           -3.6876     2.0354     0.1327 N.am    
  15 C15           -4.9719     1.3262     0.0277 C.3     
  16 C16           -5.7205     1.4371     1.3612 C.3     
  17 N17           -6.0044     4.6751     2.8632 N.2     
  18 N18           -5.0155     4.8539     2.0561 N.2     
  19 C19           -6.4390     3.4354     2.7633 C.2     
  20 C20           -7.5611     2.8305     3.5138 C.ar    
  21 C21           -8.2691     3.5986     4.4383 C.ar    
  22 C22           -9.3164     3.0186     5.1321 C.ar    
  23 C23           -9.6230     1.6887     4.8795 C.ar    
  24 C24           -8.8794     0.9856     3.9492 C.ar    
  25 N25           -7.8902     1.5623     3.2981 N.ar    
  26 Cl26           2.4045     1.8351     1.6825 Cl      
  27 H27            2.0829     4.0774    -0.0384 H       
  28 H28            0.1714     4.8664    -1.3647 H       
  29 H29           -1.9535     3.6321    -1.3403 H       
  30 H30           -3.9720     4.0098    -0.5620 H       
  31 H31           -2.7430     3.8306     0.7213 H       
  32 H32           -5.5715     1.7743    -0.7646 H       
  33 H33           -4.7903     0.2762    -0.2018 H       
  34 H34           -5.2550     0.7796     2.0955 H       
  35 H35           -6.7617     1.1473     1.2199 H       
  36 H36           -8.0032     4.6311     4.6104 H       
  37 H37           -9.8826     3.5880     5.8544 H       
  38 H38          -10.4344     1.2072     5.4049 H       
  39 H39           -9.1156    -0.0494     3.7509 H       
@<TRIPOS>BOND
   1    1    2 1
   2    1    8 3
   3    2    3 ar
   4    2    7 ar
   5    3    4 ar
   6    3   26 1
   7    4    5 ar
   8    4   27 1
   9    5    6 ar
  10    5   28 1
  11    6    7 ar
  12    6   29 1
  13    7    9 1
  14    9   10 2
  15    9   14 am
  16   11   12 1
  17   11   13 1
  18   11   18 2
  19   12   14 1
  20   12   30 1
  21   12   31 1
  22   13   16 1
  23   13   19 1
  24   14   15 1
  25   15   16 1
  26   15   32 1
  27   15   33 1
  28   16   34 1
  29   16   35 1
  30   17   18 1
  31   17   19 2
  32   19   20 1
  33   20   21 ar
  34   20   25 ar
  35   21   22 ar
  36   21   36 1
  37   22   23 ar
  38   22   37 1
  39   23   24 ar
  40   23   38 1
  41   24   25 ar
  42   24   39 1

#	End of record

