#	Name: ASD01811974
#	Creating user name:	WinNT
#	Creation time:	15. 06. 2019 19:27

#	Modifying user name:	WinNT
#	Modification time:	15. 06. 2019 19:27

#	Program:	/corina/corina34_cracker 3.40 0067  02.08.2006

@<TRIPOS>MOLECULE
ASD01811974
  70   72    0    0    0
SMALL
NO_CHARGES


@<TRIPOS>ATOM
   1 C1             3.3770     4.3537    -3.0724 C.ar    
   2 C2             3.3635     3.9441    -4.3885 C.ar    
   3 C3             4.3763     3.1399    -4.8892 C.ar    
   4 C4             5.4117     2.7395    -4.0719 C.ar    
   5 C5             5.4353     3.1470    -2.7421 C.ar    
   6 C6             5.8204     3.5959    -0.5568 C.2     
   7 O7             4.6868     4.1980    -0.9339 O.3     
   8 C8             4.4127     3.9606    -2.2334 C.ar    
   9 C9             6.3566     2.9191    -1.6107 C.2     
  10 C10            6.4146     3.6562     0.8268 C.3     
  11 C11            7.3636     4.8525     0.9225 C.3     
  12 C12            7.9669     4.9137     2.3272 C.3     
  13 C13            8.9159     6.1100     2.4230 C.3     
  14 C14            7.5945     2.1266    -1.6197 C.2     
  15 O15            8.6405     2.6358    -1.9769 O.2     
  16 C16            7.5689     0.7129    -1.1953 C.ar    
  17 C17            6.3913     0.1539    -0.6909 C.ar    
  18 C18            8.7207    -0.0717    -1.3021 C.ar    
  19 C19            8.6928    -1.3904    -0.9050 C.ar    
  20 C20            7.5208    -1.9414    -0.3989 C.ar    
  21 C21            6.3715    -1.1656    -0.2959 C.ar    
  22 O22            7.4971    -3.2414    -0.0095 O.3     
  23 C23            7.6850    -3.5052     1.3823 C.3     
  24 C24            7.4325    -4.9887     1.6588 C.3     
  25 C25            9.1189    -3.1492     1.7799 C.3     
  26 N26            6.0067    -5.2865     1.4683 N.4     
  27 C27            5.6336    -5.0230     0.0721 C.3     
  28 C28            5.7550    -6.6989     1.7842 C.3     
  29 C29            4.2699    -7.0091     1.5858 C.3     
  30 C30            6.4939    -5.8823    -0.8565 C.3     
  31 C31            5.2055    -4.4355     2.3582 C.3     
  32 C32            5.5087    -4.7927     3.8147 C.3     
  33 I33           10.4184    -2.5677    -1.0646 I       
  34 I34            4.6072    -2.0048     0.4603 I       
  35 H35            2.5852     4.9836    -2.6945 H       
  36 H36            2.5560     4.2522    -5.0361 H       
  37 H37            4.3536     2.8261    -5.9223 H       
  38 H38            6.2000     2.1126    -4.4617 H       
  39 H39            5.6162     3.7661     1.5606 H       
  40 H40            6.9668     2.7376     1.0254 H       
  41 H41            8.1620     4.7426     0.1887 H       
  42 H42            6.8114     5.7711     0.7239 H       
  43 H43            7.1685     5.0236     3.0611 H       
  44 H44            8.5191     3.9951     2.5259 H       
  45 H45            8.3637     7.0286     2.2244 H       
  46 H46            9.3457     6.1536     3.4238 H       
  47 H47            9.7143     6.0001     1.6892 H       
  48 H48            5.4982     0.7559    -0.6106 H       
  49 H49            9.6312     0.3553    -1.6959 H       
  50 H50            6.9867    -2.9033     1.9638 H       
  51 H51            8.0248    -5.5924     0.9712 H       
  52 H52            7.7183    -5.2209     2.6847 H       
  53 H53            9.8163    -3.7763     1.2243 H       
  54 H54            9.3102    -2.1011     1.5498 H       
  55 H55            9.2519    -3.3167     2.8487 H       
  56 H56            4.5821    -5.2691    -0.0757 H       
  57 H57            5.7955    -3.9692    -0.1545 H       
  58 H58            6.3494    -7.3304     1.1239 H       
  59 H59            6.0318    -6.8945     2.8202 H       
  60 H60            3.9932    -6.8136     0.5498 H       
  61 H61            4.0832    -8.0571     1.8201 H       
  62 H62            3.6755    -6.3777     2.2461 H       
  63 H63            6.3321    -6.9361    -0.6299 H       
  64 H64            6.2171    -5.6868    -1.8925 H       
  65 H65            7.5455    -5.6362    -0.7087 H       
  66 H66            5.4544    -3.3891     2.1813 H       
  67 H67            4.1462    -4.5959     2.1577 H       
  68 H68            6.5681    -4.6323     4.0152 H       
  69 H69            4.9143    -4.1612     4.4750 H       
  70 H70            5.2599    -5.8391     3.9916 H       
@<TRIPOS>BOND
   1    1    2 ar
   2    1    8 ar
   3    1   35 1
   4    2    3 ar
   5    2   36 1
   6    3    4 ar
   7    3   37 1
   8    4    5 ar
   9    4   38 1
  10    5    9 1
  11    5    8 ar
  12    6    7 1
  13    6    9 2
  14    6   10 1
  15    7    8 1
  16    9   14 1
  17   10   11 1
  18   10   39 1
  19   10   40 1
  20   11   12 1
  21   11   41 1
  22   11   42 1
  23   12   13 1
  24   12   43 1
  25   12   44 1
  26   13   45 1
  27   13   46 1
  28   13   47 1
  29   14   15 2
  30   14   16 1
  31   16   18 ar
  32   16   17 ar
  33   17   21 ar
  34   17   48 1
  35   18   19 ar
  36   18   49 1
  37   19   20 ar
  38   19   33 1
  39   20   21 ar
  40   20   22 1
  41   21   34 1
  42   22   23 1
  43   23   24 1
  44   23   25 1
  45   23   50 1
  46   24   26 1
  47   24   51 1
  48   24   52 1
  49   25   53 1
  50   25   54 1
  51   25   55 1
  52   26   27 1
  53   26   28 1
  54   26   31 1
  55   27   30 1
  56   27   56 1
  57   27   57 1
  58   28   29 1
  59   28   58 1
  60   28   59 1
  61   29   60 1
  62   29   61 1
  63   29   62 1
  64   30   63 1
  65   30   64 1
  66   30   65 1
  67   31   32 1
  68   31   66 1
  69   31   67 1
  70   32   68 1
  71   32   69 1
  72   32   70 1

#	End of record

