#	Name: ASD00070004
#	Creating user name:	WinNT
#	Creation time:	15. 06. 2019 18:29

#	Modifying user name:	WinNT
#	Modification time:	15. 06. 2019 18:29

#	Program:	/corina/corina34_cracker 3.40 0067  02.08.2006

@<TRIPOS>MOLECULE
ASD00070004
  34   36    0    0    0
SMALL
NO_CHARGES


@<TRIPOS>ATOM
   1 C1            -0.0207     1.2345    -0.1177 C.ar    
   2 C2             0.0346    -0.1419    -0.1458 C.ar    
   3 C3             1.2653    -0.7626    -0.1338 C.ar    
   4 C4             2.4356    -0.0139    -0.0798 C.ar    
   5 C5             2.3835     1.3683    -0.0510 C.ar    
   6 C6             1.1454     1.9867    -0.0848 C.ar    
   7 C7             3.6555     2.1717    -0.0229 C.3     
   8 C8             3.4051     3.6527     0.2444 C.3     
   9 C9             2.2567     4.1388    -0.6441 C.3     
  10 C10            0.9770     3.4841    -0.1239 C.3     
  11 C11            3.7229    -0.7970    -0.0382 C.3     
  12 C12            4.8807    -0.0243    -0.6678 C.3     
  13 N13            5.5441     0.7143     0.4114 N.3     
  14 C14            4.6242     1.6558     1.0519 C.3     
  15 C15            6.1274    -0.2052     1.3975 C.3     
  16 Cl16           1.3548    -2.4955    -0.1861 Cl      
  17 H17           -0.9791     1.7322    -0.1258 H       
  18 H18           -0.8732    -0.7261    -0.1764 H       
  19 H19            4.1461     2.0749    -0.9913 H       
  20 H20            3.1396     3.7937     1.2921 H       
  21 H21            4.3069     4.2211     0.0170 H       
  22 H22            2.1713     5.2236    -0.5804 H       
  23 H23            2.4338     3.8392    -1.6771 H       
  24 H24            0.1468     3.7379    -0.7830 H       
  25 H25            0.7653     3.8509     0.8805 H       
  26 H26            3.9686    -1.0208     0.9998 H       
  27 H27            3.5860    -1.7336    -0.5787 H       
  28 H28            5.5831    -0.7184    -1.1292 H       
  29 H29            4.4999     0.6719    -1.4150 H       
  30 H30            5.1847     2.4897     1.4745 H       
  31 H31            4.0661     1.1488     1.8390 H       
  32 H32            6.7650    -0.9276     0.8880 H       
  33 H33            6.7211     0.3608     2.1153 H       
  34 H34            5.3288    -0.7309     1.9209 H       
@<TRIPOS>BOND
   1    1    2 ar
   2    1    6 ar
   3    1   17 1
   4    2    3 ar
   5    2   18 1
   6    3    4 ar
   7    3   16 1
   8    4    5 ar
   9    4   11 1
  10    5    6 ar
  11    5    7 1
  12    6   10 1
  13    7    8 1
  14    7   14 1
  15    7   19 1
  16    8    9 1
  17    8   20 1
  18    8   21 1
  19    9   10 1
  20    9   22 1
  21    9   23 1
  22   10   24 1
  23   10   25 1
  24   11   12 1
  25   11   26 1
  26   11   27 1
  27   12   13 1
  28   12   28 1
  29   12   29 1
  30   13   14 1
  31   13   15 1
  32   14   30 1
  33   14   31 1
  34   15   32 1
  35   15   33 1
  36   15   34 1

#	End of record

