#	Name: ASD03092607
#	Creating user name:	WinNT
#	Creation time:	15. 06. 2019 20:32

#	Modifying user name:	WinNT
#	Modification time:	15. 06. 2019 20:32

#	Program:	/corina/corina34_cracker 3.40 0067  02.08.2006

@<TRIPOS>MOLECULE
ASD03092607
  38   40    0    0    0
SMALL
NO_CHARGES


@<TRIPOS>ATOM
   1 O1             0.2700     1.1727    -0.4612 O.3     
   2 N2             0.3642    -0.0280    -0.5648 N.2     
   3 C3             1.5992    -0.4289    -0.4785 C.2     
   4 C4             2.3869     0.7285    -0.2905 C.2     
   5 C5             1.4746     1.7483    -0.2861 C.2     
   6 C6             1.7543     3.1874    -0.1233 C.2     
   7 O7             2.8982     3.5712     0.0272 O.2     
   8 N8             0.7420     4.0770    -0.1415 N.am    
   9 C9             2.0926    -1.8504    -0.5620 C.3     
  10 C10            1.0198     5.5063     0.0202 C.3     
  11 C11            1.0329     5.8580     1.5091 C.3     
  12 N12           -3.1538     8.2940    -2.5392 N.pl3   
  13 C13           -4.1571     7.3697    -2.4238 C.2     
  14 C14           -3.7036     6.2798    -1.7853 C.2     
  15 C15           -2.2950     6.5257    -1.4655 C.ar    
  16 C16           -1.3032     5.7842    -0.8203 C.ar    
  17 C17           -0.0498     6.3078    -0.6759 C.ar    
  18 C18            0.2465     7.5747    -1.1659 C.ar    
  19 C19           -0.7190     8.3240    -1.8056 C.ar    
  20 C20           -2.0015     7.8082    -1.9630 C.ar    
  21 C21           -5.5625     7.5496    -2.9371 C.3     
  22 F22            1.4915     8.0768    -1.0138 F       
  23 H23            3.4589     0.7934    -0.1765 H       
  24 H24           -0.1706     3.7708    -0.2616 H       
  25 H25            2.3140    -2.0978    -1.6003 H       
  26 H26            2.9966    -1.9570     0.0376 H       
  27 H27            1.3241    -2.5246    -0.1838 H       
  28 H28            1.9908     5.7394    -0.4168 H       
  29 H29            1.8066     5.2783     2.0126 H       
  30 H30            1.2397     6.9215     1.6294 H       
  31 H31            0.0620     5.6249     1.9461 H       
  32 H32           -3.2407     9.1603    -2.9669 H       
  33 H33           -4.2698     5.3904    -1.5510 H       
  34 H34           -1.5266     4.7999    -0.4360 H       
  35 H35           -0.4804     9.3075    -2.1825 H       
  36 H36           -5.6255     7.1805    -3.9608 H       
  37 H37           -6.2540     6.9910    -2.3064 H       
  38 H38           -5.8246     8.6074    -2.9155 H       
@<TRIPOS>BOND
   1    1    2 1
   2    1    5 1
   3    2    3 2
   4    3    4 1
   5    3    9 1
   6    4    5 2
   7    4   23 1
   8    5    6 1
   9    6    7 2
  10    6    8 am
  11    8   10 1
  12    8   24 1
  13    9   25 1
  14    9   26 1
  15    9   27 1
  16   10   11 1
  17   10   17 1
  18   10   28 1
  19   11   29 1
  20   11   30 1
  21   11   31 1
  22   12   13 1
  23   12   20 1
  24   12   32 1
  25   13   14 2
  26   13   21 1
  27   14   15 1
  28   14   33 1
  29   15   16 ar
  30   15   20 ar
  31   16   17 ar
  32   16   34 1
  33   17   18 ar
  34   18   19 ar
  35   18   22 1
  36   19   20 ar
  37   19   35 1
  38   21   36 1
  39   21   37 1
  40   21   38 1

#	End of record

