#	Name: ASD01141047
#	Creating user name:	WinNT
#	Creation time:	15. 06. 2019 19:01

#	Modifying user name:	WinNT
#	Modification time:	15. 06. 2019 19:01

#	Program:	/corina/corina34_cracker 3.40 0067  02.08.2006

@<TRIPOS>MOLECULE
ASD01141047
  61   64    0    0    0
SMALL
NO_CHARGES


@<TRIPOS>ATOM
   1 C1            -0.0187     1.5260     0.0104 C.3     
   2 C2             0.0021    -0.0041     0.0020 C.3     
   3 C3            -0.7583     2.0319    -1.2288 C.3     
   4 C4             1.4167     2.0557    -0.0004 C.3     
   5 C5            -0.7349     2.0189     1.2695 C.3     
   6 C6             0.7175    -0.4994    -1.2563 C.3     
   7 C7             0.7423    -0.5107     1.2416 C.3     
   8 H8            -1.0206    -0.3812     0.0107 H       
   9 C9            -0.8540     3.5534    -1.1938 C.3     
  10 C10           -0.0270     1.5411    -2.4881 C.3     
  11 C11            0.0061     1.5125     2.5087 C.3     
  12 C12           -0.0168     0.0119    -2.4975 C.3     
  13 C13            0.0262    -0.0174     2.5005 C.3     
  14 C14           -1.5065     4.1039    -2.4731 C.3     
  15 C15           -0.7891     2.0723    -3.6874 C.3     
  16 H16            0.5539    -0.3786     3.3833 H       
  17 O17           -1.3145    -0.5115     2.5115 O.3     
  18 C18           -0.6769     3.6206    -3.6465 C.3     
  19 C19           -0.1842     1.7539    -5.0591 C.3     
  20 C20            0.7845     4.0283    -3.4493 C.3     
  21 C21           -1.1474     4.0432    -5.0342 C.3     
  22 C22           -0.7812     2.8628    -5.9681 C.3     
  23 C23           -2.6606     4.2698    -5.0347 C.3     
  24 C24           -3.1057     4.6862    -6.4129 C.2     
  25 O25           -2.9886     5.2973    -4.0974 O.3     
  26 H26           -3.1663     3.3462    -4.7531 H       
  27 H27           -0.6291     4.9488    -5.3491 H       
  28 C28           -3.9740     3.9601    -7.0664 C.1     
  29 C29           -4.8423     3.2340    -7.7199 C.2     
  30 H30           -1.7694     1.6248    -1.2267 H       
  31 H31            1.9269     1.7042    -0.8972 H       
  32 H32            1.4018     3.1455     0.0056 H       
  33 H33            1.9439     1.6946     0.8826 H       
  34 H34           -0.7505     3.1087     1.2756 H       
  35 H35           -1.7572     1.6408     1.2776 H       
  36 H36            1.7421    -0.1275    -1.2616 H       
  37 H37            0.7270    -1.5894    -1.2632 H       
  38 H38            0.7573    -1.6005     1.2357 H       
  39 H39            1.7648    -0.1332     1.2338 H       
  40 H40           -1.4501     3.8535    -0.3319 H       
  41 H41            0.1478     3.9716    -1.0961 H       
  42 H42            0.9913     1.9299    -2.4975 H       
  43 H43            1.0286     1.8900     2.5002 H       
  44 H44           -0.5036     1.8641     3.4058 H       
  45 H45            0.4931    -0.3427    -3.3933 H       
  46 H46           -1.0419    -0.3586    -2.4918 H       
  47 H47           -2.5261     3.7287    -2.5603 H       
  48 H48           -1.5123     5.1936    -2.4470 H       
  49 H49           -1.8300     1.7513    -3.6476 H       
  50 H50           -1.8285    -0.2371     3.2832 H       
  51 H51            0.9029     1.8252    -5.0271 H       
  52 H52           -0.4973     0.7666    -5.3989 H       
  53 H53            0.8723     5.1123    -3.5218 H       
  54 H54            1.1236     3.7012    -2.4664 H       
  55 H55            1.3989     3.5617    -4.2194 H       
  56 H56           -0.0421     3.1824    -6.7027 H       
  57 H57           -1.6744     2.4931    -6.4717 H       
  58 H58           -2.7072     5.5846    -6.8606 H       
  59 H59           -2.5725     6.1495    -4.2863 H       
  60 H60           -4.5031     2.4373    -8.3654 H       
  61 H61           -5.8990     3.4307    -7.6144 H       
@<TRIPOS>BOND
   1    1    2 1
   2    1    4 1
   3    1    5 1
   4    1    3 1
   5    2    6 1
   6    2    7 1
   7    2    8 1
   8    3   10 1
   9    3    9 1
  10    3   30 1
  11    4   31 1
  12    4   32 1
  13    4   33 1
  14    5   11 1
  15    5   34 1
  16    5   35 1
  17    6   12 1
  18    6   36 1
  19    6   37 1
  20    7   13 1
  21    7   38 1
  22    7   39 1
  23    9   14 1
  24    9   40 1
  25    9   41 1
  26   10   15 1
  27   10   12 1
  28   10   42 1
  29   11   13 1
  30   11   43 1
  31   11   44 1
  32   12   45 1
  33   12   46 1
  34   13   16 1
  35   13   17 1
  36   14   18 1
  37   14   47 1
  38   14   48 1
  39   15   19 1
  40   15   18 1
  41   15   49 1
  42   17   50 1
  43   18   20 1
  44   18   21 1
  45   19   22 1
  46   19   51 1
  47   19   52 1
  48   20   53 1
  49   20   54 1
  50   20   55 1
  51   21   22 1
  52   21   23 1
  53   21   27 1
  54   22   56 1
  55   22   57 1
  56   23   24 1
  57   23   25 1
  58   23   26 1
  59   24   28 2
  60   24   58 1
  61   25   59 1
  62   28   29 2
  63   29   60 1
  64   29   61 1

#	End of record

