#	Name: ASD01813954
#	Creating user name:	WinNT
#	Creation time:	15. 06. 2019 19:31

#	Modifying user name:	WinNT
#	Modification time:	15. 06. 2019 19:31

#	Program:	/corina/corina34_cracker 3.40 0067  02.08.2006

@<TRIPOS>MOLECULE
ASD01813954
  39   41    0    0    0
SMALL
NO_CHARGES


@<TRIPOS>ATOM
   1 C1            -0.0169     1.3972     0.0097 C.2     
   2 C2             0.0021    -0.0041     0.0020 C.2     
   3 C3             1.1986    -0.6593    -0.0129 C.2     
   4 C4             2.3918     0.0821    -0.0204 C.2     
   5 N5             2.3437     1.4497    -0.0122 N.am    
   6 C6             1.1421     2.0937     0.0024 C.2     
   7 C7             3.6227    -0.5889    -0.0356 C.2     
   8 C8             4.7877     0.1218    -0.0425 C.2     
   9 C9             4.7345     1.5280    -0.0346 C.2     
  10 C10            3.4812     2.1736    -0.0189 C.2     
  11 O11            3.4258     3.3917    -0.0123 O.2     
  12 C12            5.9703     2.3140    -0.0413 C.2     
  13 O13            5.9124     3.6618    -0.0337 O.3     
  14 O14            7.0487     1.7516    -0.0537 O.2     
  15 C15            3.6593    -2.0954    -0.0439 C.3     
  16 N16            3.7787    -2.5747    -1.4274 N.3     
  17 C17            4.0554    -4.0200    -1.4629 C.3     
  18 C18            4.2189    -4.4413    -2.9068 C.2     
  19 O19            5.0349    -3.7027    -3.6904 O.3     
  20 C20            4.8195    -2.2635    -3.6243 C.3     
  21 C21            4.8153    -1.8288    -2.1558 C.3     
  22 C22            5.3434    -4.3161    -0.6920 C.3     
  23 O23            3.6391    -5.4067    -3.3447 O.2     
  24 H24           -0.9605     1.9226     0.0170 H       
  25 H25           -0.9233    -0.5609     0.0082 H       
  26 H26            1.2282    -1.7389    -0.0187 H       
  27 H27            1.1156     3.1733     0.0087 H       
  28 H28            5.7393    -0.3889    -0.0536 H       
  29 H29            6.7544     4.1373    -0.0385 H       
  30 H30            4.5153    -2.4412     0.5356 H       
  31 H31            2.7412    -2.4836     0.3971 H       
  32 H32            3.2236    -4.5634    -1.0147 H       
  33 H33            5.6213    -1.7497    -4.1546 H       
  34 H34            3.8610    -2.0165    -4.0807 H       
  35 H35            4.6059    -0.7609    -2.0935 H       
  36 H36            5.7898    -2.0345    -1.7131 H       
  37 H37            5.2291    -3.9949     0.3433 H       
  38 H38            5.5457    -5.3868    -0.7200 H       
  39 H39            6.1730    -3.7775    -1.1500 H       
@<TRIPOS>BOND
   1    1    2 1
   2    1    6 2
   3    1   24 1
   4    2    3 2
   5    2   25 1
   6    3    4 1
   7    3   26 1
   8    4    5 1
   9    4    7 2
  10    5    6 1
  11    5   10 am
  12    6   27 1
  13    7    8 1
  14    7   15 1
  15    8    9 2
  16    8   28 1
  17    9   10 1
  18    9   12 1
  19   10   11 2
  20   12   13 1
  21   12   14 2
  22   13   29 1
  23   15   16 1
  24   15   30 1
  25   15   31 1
  26   16   17 1
  27   16   21 1
  28   17   18 1
  29   17   22 1
  30   17   32 1
  31   18   19 1
  32   18   23 2
  33   19   20 1
  34   20   21 1
  35   20   33 1
  36   20   34 1
  37   21   35 1
  38   21   36 1
  39   22   37 1
  40   22   38 1
  41   22   39 1

#	End of record

