#	Name: ASD02039482
#	Creating user name:	WinNT
#	Creation time:	15. 06. 2019 20:18

#	Modifying user name:	WinNT
#	Modification time:	15. 06. 2019 20:18

#	Program:	/corina/corina34_cracker 3.40 0067  02.08.2006

@<TRIPOS>MOLECULE
ASD02039482
  48   50    0    0    0
SMALL
NO_CHARGES


@<TRIPOS>ATOM
   1 C1             0.3267     1.3040     0.3256 C.ar    
   2 C2             0.5065    -0.0697     0.4028 C.ar    
   3 C3             1.4958     2.2210     0.0743 C.3     
   4 N4             1.6639     2.4140    -1.3682 N.am    
   5 C5             1.0266     3.4248    -1.9916 C.2     
   6 C6             1.2734     3.6809    -3.4213 C.2     
   7 C7             0.6234     4.5920    -4.2012 C.2     
   8 N8             2.1931     3.0572    -4.2011 N.2     
   9 C9             2.1228     3.5442    -5.4062 C.2     
  10 N10            1.1579     4.4998    -5.4416 N.pl3   
  11 O11            0.2478     4.1256    -1.3738 O.2     
  12 C12            0.7655     5.2885    -6.6122 C.3     
  13 C13            2.5246     1.5083    -2.1330 C.3     
  14 C14           -0.5863    -0.8847     0.6345 C.ar    
  15 N15           -1.7918    -0.3742     0.7818 N.ar    
  16 C16           -2.0062     0.9336     0.7149 C.ar    
  17 C17           -0.9515     1.8127     0.4787 C.ar    
  18 C18           -3.3809     1.4632     0.8863 C.ar    
  19 C19           -4.4427     0.5901     1.1167 C.ar    
  20 C20           -5.7197     1.0871     1.2756 C.ar    
  21 C21           -5.9477     2.4522     1.2064 C.ar    
  22 C22           -4.8951     3.3238     0.9775 C.ar    
  23 C23           -3.6140     2.8360     0.8232 C.ar    
  24 F24           -7.2000     2.9346     1.3620 F       
  25 C25            1.6701     0.4141    -2.7759 C.3     
  26 O26            0.7896     1.0003    -3.7368 O.3     
  27 C27           -0.0576     0.0591    -4.3991 C.3     
  28 F28           -0.8547    -0.5961    -3.4544 F       
  29 F29           -0.8755     0.7310    -5.3138 F       
  30 F30            0.7282    -0.8789    -5.0773 F       
  31 H31            1.4905    -0.4983     0.2828 H       
  32 H32            1.3113     3.1839     0.5506 H       
  33 H33            2.4010     1.7778     0.4894 H       
  34 H34           -0.1666     5.2590    -3.8890 H       
  35 H35            2.7350     3.2399    -6.2423 H       
  36 H36           -0.0289     4.7705    -7.1496 H       
  37 H37            0.4078     6.2659    -6.2885 H       
  38 H38            1.6257     5.4157    -7.2695 H       
  39 H39            3.0420     2.0695    -2.9112 H       
  40 H40            3.2565     1.0528    -1.4660 H       
  41 H41           -0.4497    -1.9544     0.6952 H       
  42 H42           -1.1274     2.8769     0.4245 H       
  43 H43           -4.2659    -0.4740     1.1705 H       
  44 H44           -6.5431     0.4113     1.4538 H       
  45 H45           -5.0774     4.3870     0.9239 H       
  46 H46           -2.7941     3.5161     0.6452 H       
  47 H47            2.3181    -0.3093    -3.2707 H       
  48 H48            1.0848    -0.0890    -2.0063 H       
@<TRIPOS>BOND
   1    1    2 ar
   2    1    3 1
   3    1   17 ar
   4    2   14 ar
   5    2   31 1
   6    3    4 1
   7    3   32 1
   8    3   33 1
   9    4    5 am
  10    4   13 1
  11    5    6 1
  12    5   11 2
  13    6    7 2
  14    6    8 1
  15    7   10 1
  16    7   34 1
  17    8    9 2
  18    9   10 1
  19    9   35 1
  20   10   12 1
  21   12   36 1
  22   12   37 1
  23   12   38 1
  24   13   25 1
  25   13   39 1
  26   13   40 1
  27   14   15 ar
  28   14   41 1
  29   15   16 ar
  30   16   17 ar
  31   16   18 1
  32   17   42 1
  33   18   19 ar
  34   18   23 ar
  35   19   20 ar
  36   19   43 1
  37   20   21 ar
  38   20   44 1
  39   21   22 ar
  40   21   24 1
  41   22   23 ar
  42   22   45 1
  43   23   46 1
  44   25   26 1
  45   25   47 1
  46   25   48 1
  47   26   27 1
  48   27   28 1
  49   27   29 1
  50   27   30 1

#	End of record

