#	Name: ASD02198011
#	Creating user name:	WinNT
#	Creation time:	15. 06. 2019 20:18

#	Modifying user name:	WinNT
#	Modification time:	15. 06. 2019 20:18

#	Program:	/corina/corina34_cracker 3.40 0067  02.08.2006

@<TRIPOS>MOLECULE
ASD02198011
  40   42    0    0    0
SMALL
NO_CHARGES


@<TRIPOS>ATOM
   1 C1             0.0263     1.2586     0.0254 C.2     
   2 C2            -0.0447    -0.0850    -0.0111 C.2     
   3 N3            -1.2353    -0.7530    -0.0347 N.pl3   
   4 C4            -2.3876    -0.0224    -0.3213 C.2     
   5 C5            -2.4181     1.3409    -0.2954 C.2     
   6 C6            -1.1808     2.1514     0.0636 C.3     
   7 C7             1.2353    -0.8802    -0.0268 C.3     
   8 S8            -3.9594    -0.6664    -0.7536 S.3     
   9 C9            -4.6277     0.9535    -0.8944 C.2     
  10 C10           -3.6508     1.8762    -0.6123 C.2     
  11 C11           -5.9599     1.2580    -1.2437 C.2     
  12 O12           -6.3211     2.4198    -1.3136 O.2     
  13 N13           -6.8333     0.2641    -1.5000 N.am    
  14 N14           -3.8855     3.2481    -0.6431 N.pl3   
  15 C15           -1.3437     2.7326     1.4444 C.ar    
  16 C16            1.2949     1.8564     0.0338 C.2     
  17 O17            2.0339     1.7003     0.9859 O.2     
  18 C18            1.7417     2.6925    -1.1378 C.3     
  19 C19           -1.3159     4.1029     1.6250 C.ar    
  20 C20           -1.4653     4.6366     2.8912 C.ar    
  21 C21           -1.6427     3.7991     3.9780 C.ar    
  22 C22           -1.6705     2.4278     3.7967 C.ar    
  23 C23           -1.5266     1.8955     2.5292 C.ar    
  24 Cl24          -1.8299     4.4686     5.5687 Cl      
  25 H25           -1.2779    -1.7059     0.1419 H       
  26 H26           -1.0527     2.9583    -0.6580 H       
  27 H27            1.5902    -1.0176     0.9946 H       
  28 H28            1.0527    -1.8536    -0.4820 H       
  29 H29            1.9887    -0.3446    -0.6043 H       
  30 H30           -6.5458    -0.6606    -1.4444 H       
  31 H31           -7.7495     0.4735    -1.7402 H       
  32 H32           -4.7664     3.5844    -0.8707 H       
  33 H33           -3.1682     3.8676    -0.4370 H       
  34 H34            0.9519     2.7173    -1.8886 H       
  35 H35            1.9542     3.7069    -0.8002 H       
  36 H36            2.6422     2.2579    -1.5718 H       
  37 H37           -1.1771     4.7566     0.7765 H       
  38 H38           -1.4433     5.7071     3.0322 H       
  39 H39           -1.8089     1.7735     4.6447 H       
  40 H40           -1.5482     0.8251     2.3875 H       
@<TRIPOS>BOND
   1    1    2 2
   2    1   16 1
   3    1    6 1
   4    2    3 1
   5    2    7 1
   6    3    4 1
   7    3   25 1
   8    4    5 2
   9    4    8 1
  10    5    6 1
  11    5   10 1
  12    6   15 1
  13    6   26 1
  14    7   27 1
  15    7   28 1
  16    7   29 1
  17    8    9 1
  18    9   10 2
  19    9   11 1
  20   10   14 1
  21   11   12 2
  22   11   13 am
  23   13   30 1
  24   13   31 1
  25   14   32 1
  26   14   33 1
  27   15   19 ar
  28   15   23 ar
  29   16   17 2
  30   16   18 1
  31   18   34 1
  32   18   35 1
  33   18   36 1
  34   19   20 ar
  35   19   37 1
  36   20   21 ar
  37   20   38 1
  38   21   22 ar
  39   21   24 1
  40   22   23 ar
  41   22   39 1
  42   23   40 1

#	End of record

