#	Name: ASD02448081
#	Creating user name:	WinNT
#	Creation time:	15. 06. 2019 20:21

#	Modifying user name:	WinNT
#	Modification time:	15. 06. 2019 20:21

#	Program:	/corina/corina34_cracker 3.40 0067  02.08.2006

@<TRIPOS>MOLECULE
ASD02448081
  74   79    0    0    0
SMALL
NO_CHARGES


@<TRIPOS>ATOM
   1 C1            -0.0094     1.3526     0.0412 C.ar    
   2 C2             0.0091    -0.0275     0.0180 C.ar    
   3 C3             1.2205    -0.7057     0.0111 C.ar    
   4 C4             2.4137     0.0038     0.0272 C.ar    
   5 C5             2.3961     1.3839     0.0501 C.ar    
   6 C6             1.1843     2.0628     0.0574 C.ar    
   7 N7             1.1660     3.4607     0.0800 N.am    
   8 C8             0.1057     4.3573    -0.3984 C.3     
   9 C9             0.4729     5.7915    -0.1927 C.2     
  10 N10            1.6709     5.9886     0.3755 N.am    
  11 S11            2.3405     4.4920     0.6634 S.o2    
  12 O12           -0.2560     6.7057    -0.5152 O.2     
  13 O13            2.3958     4.3216     2.0730 O.2     
  14 O14            3.4651     4.3636    -0.1957 O.2     
  15 N15            1.2388    -2.1089    -0.0116 N.pl3   
  16 C16            0.6281    -2.9435     0.8860 C.2     
  17 C17            1.8608    -2.8915    -0.9315 C.2     
  18 N18            1.6573    -4.1431    -0.6272 N.2     
  19 C19            0.9017    -4.2132     0.4873 C.2     
  20 C20            0.4496    -5.4564     1.1593 C.ar    
  21 C21            0.8050    -6.7022     0.6397 C.ar    
  22 C22           -0.3261    -5.3840     2.3141 C.ar    
  23 C23           -0.7442    -6.5429     2.9364 C.ar    
  24 C24           -0.3941    -7.7777     2.4152 C.ar    
  25 C25            0.3815    -7.8566     1.2701 C.ar    
  26 F26           -0.8062    -8.9087     3.0286 F       
  27 F27            1.5610    -6.7792    -0.4773 F       
  28 C28            2.6557    -2.3944    -2.1114 C.3     
  29 C29            1.7741    -2.3617    -3.3332 C.ar    
  30 C30            0.9823    -1.2552    -3.5822 C.ar    
  31 C31            1.7640    -3.4360    -4.2045 C.ar    
  32 C32            0.9588    -3.4112    -5.3253 C.ar    
  33 C33            0.1552    -2.3014    -5.5782 C.ar    
  34 C34            0.1733    -1.2198    -4.6999 C.ar    
  35 C35           -0.7121    -2.2688    -6.7818 C.ar    
  36 C36           -1.5157    -1.1590    -7.0347 C.ar    
  37 C37           -0.7216    -3.3455    -7.6662 C.ar    
  38 C38           -1.5302    -3.3099    -8.7841 C.ar    
  39 C39           -2.3299    -2.2079    -9.0275 C.ar    
  40 C40           -2.3205    -1.1340    -8.1557 C.ar    
  41 C41           -3.2100    -2.1744   -10.2504 C.3     
  42 C42           -4.1948    -3.3444   -10.2022 C.3     
  43 C43           -3.9857    -0.8560   -10.2845 C.3     
  44 C44           -2.3432    -2.2888   -11.5059 C.3     
  45 H45           -0.9518     1.8801     0.0424 H       
  46 H46           -0.9189    -0.5798     0.0054 H       
  47 H47            3.3559    -0.5242     0.0223 H       
  48 H48            3.3244     1.9357     0.0630 H       
  49 H49           -0.0593     4.1799    -1.4611 H       
  50 H50           -0.8149     4.1431     0.1445 H       
  51 H51            2.0728     6.8465     0.5838 H       
  52 H52            0.0428    -2.6495     1.7447 H       
  53 H53           -0.5997    -4.4222     2.7221 H       
  54 H54           -1.3453    -6.4868     3.8320 H       
  55 H55            0.6520    -8.8215     0.8673 H       
  56 H56            3.0255    -1.3904    -1.9033 H       
  57 H57            3.4984    -3.0624    -2.2892 H       
  58 H58            0.9968    -0.4176    -2.9006 H       
  59 H59            2.3875    -4.2955    -4.0077 H       
  60 H60            0.9519    -4.2503    -6.0051 H       
  61 H61           -0.4479    -0.3572    -4.8910 H       
  62 H62           -1.5091    -0.3200    -6.3547 H       
  63 H63           -0.0971    -4.2061    -7.4774 H       
  64 H64           -1.5384    -4.1439    -9.4702 H       
  65 H65           -2.9471    -0.2762    -8.3504 H       
  66 H66           -4.8123    -3.2629    -9.3077 H       
  67 H67           -4.8314    -3.3201   -11.0866 H       
  68 H68           -3.6422    -4.2836   -10.1778 H       
  69 H69           -3.2842    -0.0225   -10.3188 H       
  70 H70           -4.6223    -0.8318   -11.1690 H       
  71 H71           -4.6033    -0.7745    -9.3900 H       
  72 H72           -1.7906    -3.2280   -11.4816 H       
  73 H73           -2.9798    -2.2645   -12.3904 H       
  74 H74           -1.6416    -1.4552   -11.5402 H       
@<TRIPOS>BOND
   1    1    2 ar
   2    1    6 ar
   3    1   45 1
   4    2    3 ar
   5    2   46 1
   6    3    4 ar
   7    3   15 1
   8    4    5 ar
   9    4   47 1
  10    5    6 ar
  11    5   48 1
  12    6    7 1
  13    7    8 1
  14    7   11 am
  15    8    9 1
  16    8   49 1
  17    8   50 1
  18    9   10 am
  19    9   12 2
  20   10   11 am
  21   10   51 1
  22   11   13 2
  23   11   14 2
  24   15   16 1
  25   15   17 1
  26   16   19 2
  27   16   52 1
  28   17   18 2
  29   17   28 1
  30   18   19 1
  31   19   20 1
  32   20   21 ar
  33   20   22 ar
  34   21   27 1
  35   21   25 ar
  36   22   23 ar
  37   22   53 1
  38   23   24 ar
  39   23   54 1
  40   24   25 ar
  41   24   26 1
  42   25   55 1
  43   28   29 1
  44   28   56 1
  45   28   57 1
  46   29   30 ar
  47   29   31 ar
  48   30   34 ar
  49   30   58 1
  50   31   32 ar
  51   31   59 1
  52   32   33 ar
  53   32   60 1
  54   33   34 ar
  55   33   35 1
  56   34   61 1
  57   35   36 ar
  58   35   37 ar
  59   36   40 ar
  60   36   62 1
  61   37   38 ar
  62   37   63 1
  63   38   39 ar
  64   38   64 1
  65   39   41 1
  66   39   40 ar
  67   40   65 1
  68   41   42 1
  69   41   44 1
  70   41   43 1
  71   42   66 1
  72   42   67 1
  73   42   68 1
  74   43   69 1
  75   43   70 1
  76   43   71 1
  77   44   72 1
  78   44   73 1
  79   44   74 1

#	End of record

