#	Name: ASD01140216
#	Creating user name:	WinNT
#	Creation time:	15. 06. 2019 19:00

#	Modifying user name:	WinNT
#	Modification time:	15. 06. 2019 19:00

#	Program:	/corina/corina34_cracker 3.40 0067  02.08.2006

@<TRIPOS>MOLECULE
ASD01140216
  54   58    0    0    0
SMALL
NO_CHARGES


@<TRIPOS>ATOM
   1 C1            -0.5702     2.5117    -1.6174 C.ar    
   2 C2            -0.9330     1.1629    -1.6652 C.ar    
   3 C3            -0.0474     0.1950    -1.2119 C.ar    
   4 C4             1.2101     0.5555    -0.7054 C.ar    
   5 C5             1.5823     1.9016    -0.7164 C.ar    
   6 C6             0.6717     2.8682    -1.1486 C.ar    
   7 C7             2.0206    -0.5064    -0.1123 C.2     
   8 N8             3.1902    -0.5479     0.2897 N.2     
   9 C9             4.2094     0.4060     0.6204 C.3     
  10 C10            3.7837     1.8396     0.4862 C.2     
  11 N11            2.8619     2.3575    -0.3901 N.am    
  12 C12            3.2424     3.6378    -0.6300 C.2     
  13 N13            4.2829     2.8323     1.1663 N.2     
  14 C14            3.9215     4.0063     0.5696 C.2     
  15 C15           -2.2137     0.7809    -2.1794 C.1     
  16 C16           -3.2637     0.4678    -2.6010 C.1     
  17 O17            3.0509     4.3100    -1.6286 O.2     
  18 C18            4.1632     5.2822     1.0301 C.2     
  19 N19            4.9436     5.4726     2.1273 N.pl3   
  20 C20            5.6557     4.3474     2.7517 C.3     
  21 C21            7.1294     4.7343     2.9148 C.3     
  22 N22            7.2206     6.0073     3.6421 N.3     
  23 C23            6.5936     7.0993     2.8855 C.3     
  24 C24            5.1027     6.8104     2.7175 C.3     
  25 C25            8.6163     6.3276     3.9699 C.3     
  26 C26            1.2967    -1.7902     0.0381 C.ar    
  27 C27            1.6346    -2.8823    -0.7608 C.ar    
  28 C28            0.9570    -4.0755    -0.6156 C.ar    
  29 C29           -0.0560    -4.1897     0.3197 C.ar    
  30 C30           -0.3958    -3.1099     1.1150 C.ar    
  31 C31            0.2783    -1.9132     0.9832 C.ar    
  32 H32           -1.2616     3.2710    -1.9519 H       
  33 H33           -0.3297    -0.8468    -1.2492 H       
  34 H34            0.9476     3.9118    -1.1142 H       
  35 H35            4.5237     0.2334     1.6498 H       
  36 H36            5.0661     0.2370    -0.0319 H       
  37 H37           -4.2028     0.1877    -2.9780 H       
  38 H38            3.7329     6.1311     0.5195 H       
  39 H39            5.2220     4.1368     3.7293 H       
  40 H40            5.5768     3.4658     2.1155 H       
  41 H41            7.6496     3.9573     3.4751 H       
  42 H42            7.5878     4.8432     1.9319 H       
  43 H43            6.7251     8.0376     3.4244 H       
  44 H44            7.0594     7.1754     1.9030 H       
  45 H45            4.6567     7.5574     2.0610 H       
  46 H46            4.6130     6.8352     3.6910 H       
  47 H47            9.1962     6.4081     3.0505 H       
  48 H48            8.6549     7.2748     4.5079 H       
  49 H49            9.0333     5.5377     4.5945 H       
  50 H50            2.4247    -2.7942    -1.4917 H       
  51 H51            1.2177    -4.9219    -1.2337 H       
  52 H52           -0.5840    -5.1254     0.4291 H       
  53 H53           -1.1875    -3.2050     1.8434 H       
  54 H54            0.0122    -1.0709     1.6046 H       
@<TRIPOS>BOND
   1    1    2 ar
   2    1    6 ar
   3    1   32 1
   4    2    3 ar
   5    2   15 1
   6    3    4 ar
   7    3   33 1
   8    4    5 ar
   9    4    7 1
  10    5    6 ar
  11    5   11 1
  12    6   34 1
  13    7    8 2
  14    7   26 1
  15    8    9 1
  16    9   10 1
  17    9   35 1
  18    9   36 1
  19   10   11 1
  20   10   13 2
  21   11   12 am
  22   12   17 2
  23   12   14 1
  24   13   14 1
  25   14   18 2
  26   15   16 3
  27   16   37 1
  28   18   19 1
  29   18   38 1
  30   19   20 1
  31   19   24 1
  32   20   21 1
  33   20   39 1
  34   20   40 1
  35   21   22 1
  36   21   41 1
  37   21   42 1
  38   22   23 1
  39   22   25 1
  40   23   24 1
  41   23   43 1
  42   23   44 1
  43   24   45 1
  44   24   46 1
  45   25   47 1
  46   25   48 1
  47   25   49 1
  48   26   27 ar
  49   26   31 ar
  50   27   28 ar
  51   27   50 1
  52   28   29 ar
  53   28   51 1
  54   29   30 ar
  55   29   52 1
  56   30   31 ar
  57   30   53 1
  58   31   54 1

#	End of record

