#	Name: ASD01814581
#	Creating user name:	WinNT
#	Creation time:	15. 06. 2019 19:32

#	Modifying user name:	WinNT
#	Modification time:	15. 06. 2019 19:32

#	Program:	/corina/corina34_cracker 3.40 0067  02.08.2006

@<TRIPOS>MOLECULE
ASD01814581
  64   68    0    0    0
SMALL
NO_CHARGES


@<TRIPOS>ATOM
   1 N1            -0.5892     1.8865    -1.5982 N.2     
   2 C2            -0.8188     0.7365    -2.1868 C.2     
   3 C3             0.0683     0.2499    -3.1592 C.2     
   4 C4             1.1646     0.9785    -3.4852 C.2     
   5 N5             1.3797     2.1722    -2.8572 N.pl3   
   6 C6             0.4905     2.6147    -1.9122 C.2     
   7 N7             2.3919     3.1311    -2.9687 N.2     
   8 C8             2.1389     4.1176    -2.1324 C.2     
   9 C9             0.9641     3.8385    -1.4544 C.2     
  10 C10            2.6721     5.4443    -1.6503 C.3     
  11 N11            1.7466     5.9549    -0.6342 N.am    
  12 C12            0.6727     4.9657    -0.4974 C.3     
  13 C13            1.8611     7.1133     0.0451 C.2     
  14 O14            0.9719     7.4692     0.7944 O.2     
  15 C15            3.0644     7.9488    -0.1201 C.ar    
  16 C16            2.9443     9.3407    -0.2437 C.ar    
  17 C17            4.3307     7.3586    -0.1487 C.ar    
  18 C18            5.4515     8.1438    -0.3029 C.ar    
  19 C19            5.3292     9.5205    -0.4302 C.ar    
  20 C20            4.0811    10.1174    -0.3981 C.ar    
  21 O21            1.7200     9.9241    -0.2125 O.3     
  22 Cl22          -0.2348    -1.2718    -3.9377 Cl      
  23 F23            6.4348    10.2824    -0.5805 F       
  24 C24            2.1327     0.4776    -4.5259 C.3     
  25 C25           -2.0399    -0.0654    -1.8166 C.3     
  26 C26            1.6821    11.3526    -0.2001 C.3     
  27 C27            1.6536    13.4057    -1.6206 C.3     
  28 C28            1.7559    11.8788    -1.6362 C.3     
  29 C29            0.3742    11.8243     0.4414 C.3     
  30 C30            0.3120    13.3527     0.3967 C.3     
  31 N31            0.3855    13.8063    -0.9980 N.3     
  32 C32            0.1897    15.2593    -1.0900 C.3     
  33 C33           -0.2250    15.6287    -2.5157 C.3     
  34 O34           -1.4630    14.9892    -2.8325 O.3     
  35 C35           -0.3931    17.1458    -2.6210 C.3     
  36 F36            0.8189    17.7719    -2.3108 F       
  37 F37           -0.7723    17.4836    -3.9246 F       
  38 F38           -1.3796    17.5691    -1.7239 F       
  39 H39            3.6615     5.3080    -1.2136 H       
  40 H40            2.7286     6.1446    -2.4836 H       
  41 H41           -0.2851     5.4229    -0.7457 H       
  42 H42            0.6484     4.5862     0.5241 H       
  43 H43            4.4303     6.2878    -0.0496 H       
  44 H44            6.4296     7.6864    -0.3244 H       
  45 H45            3.9931    11.1895    -0.4940 H       
  46 H46            1.7905    -0.4844    -4.9074 H       
  47 H47            2.1884     1.1944    -5.3452 H       
  48 H48            3.1194     0.3606    -4.0778 H       
  49 H49           -2.6051     0.4659    -1.0508 H       
  50 H50           -2.6648    -0.2039    -2.6989 H       
  51 H51           -1.7330    -1.0382    -1.4323 H       
  52 H52            2.5272    11.7344     0.3726 H       
  53 H53            2.4850    13.8196    -1.0500 H       
  54 H54            1.6915    13.7827    -2.6426 H       
  55 H55            2.7042    11.5822    -2.0842 H       
  56 H56            0.9325    11.4649    -2.2182 H       
  57 H57           -0.4709    11.4094    -0.1080 H       
  58 H58            0.3355    11.4886     1.4777 H       
  59 H59           -0.6245    13.6912     0.8399 H       
  60 H60            1.1497    13.7668     0.9579 H       
  61 H61           -0.5910    15.5655    -0.3937 H       
  62 H62            1.1204    15.7680    -0.8390 H       
  63 H63            0.5436    15.2989    -3.2146 H       
  64 H64           -2.1939    15.2364    -2.2496 H       
@<TRIPOS>BOND
   1    1    2 2
   2    1    6 1
   3    2    3 1
   4    2   25 1
   5    3    4 2
   6    3   22 1
   7    4    5 1
   8    4   24 1
   9    5    7 1
  10    5    6 1
  11    6    9 2
  12    7    8 2
  13    8   10 1
  14    8    9 1
  15    9   12 1
  16   10   11 1
  17   10   39 1
  18   10   40 1
  19   11   12 1
  20   11   13 am
  21   12   41 1
  22   12   42 1
  23   13   14 2
  24   13   15 1
  25   15   17 ar
  26   15   16 ar
  27   16   20 ar
  28   16   21 1
  29   17   18 ar
  30   17   43 1
  31   18   19 ar
  32   18   44 1
  33   19   20 ar
  34   19   23 1
  35   20   45 1
  36   21   26 1
  37   24   46 1
  38   24   47 1
  39   24   48 1
  40   25   49 1
  41   25   50 1
  42   25   51 1
  43   26   29 1
  44   26   28 1
  45   26   52 1
  46   27   28 1
  47   27   31 1
  48   27   53 1
  49   27   54 1
  50   28   55 1
  51   28   56 1
  52   29   30 1
  53   29   57 1
  54   29   58 1
  55   30   31 1
  56   30   59 1
  57   30   60 1
  58   31   32 1
  59   32   33 1
  60   32   61 1
  61   32   62 1
  62   33   34 1
  63   33   35 1
  64   33   63 1
  65   34   64 1
  66   35   36 1
  67   35   37 1
  68   35   38 1

#	End of record

