#	Name: ASD01901471
#	Creating user name:	WinNT
#	Creation time:	15. 06. 2019 19:53

#	Modifying user name:	WinNT
#	Modification time:	15. 06. 2019 19:53

#	Program:	/corina/corina34_cracker 3.40 0067  02.08.2006

@<TRIPOS>MOLECULE
ASD01901471
  37   40    0    0    0
SMALL
NO_CHARGES


@<TRIPOS>ATOM
   1 C1            -0.0168     1.3909     0.0097 C.ar    
   2 C2             1.1732     2.0950     0.0021 C.ar    
   3 C3             2.3789     1.4184    -0.0135 C.ar    
   4 C4             2.4022     0.0351    -0.0212 C.ar    
   5 C5             1.2209    -0.6786    -0.0132 C.ar    
   6 C6             0.0021    -0.0041     0.0020 C.ar    
   7 C7            -1.2712    -0.7665     0.0106 C.2     
   8 N8            -3.1795    -1.5370    -1.1466 N.2     
   9 C9            -2.0559    -0.8626    -1.1592 C.2     
  10 C10           -1.6979    -1.3902     1.1495 C.2     
  11 N11           -2.8722    -2.0827     1.1228 N.pl3   
  12 C12           -3.6085    -2.1481    -0.0321 C.2     
  13 C13           -3.5494    -2.7955     2.0752 C.2     
  14 C14           -4.6683    -3.2744     1.4912 C.2     
  15 N15           -4.6898    -2.8731     0.2167 N.2     
  16 C16           -5.7185    -4.1199     2.1644 C.3     
  17 O17           -5.3499    -4.3416     3.5272 O.3     
  18 C18           -6.1952    -5.0906     4.2802 C.ar    
  19 C19           -7.3615    -5.6168     3.7332 C.ar    
  20 C20           -5.9139    -5.3565     5.6185 C.ar    
  21 C21           -6.7970    -6.1215     6.3515 C.ar    
  22 N22           -7.8968    -6.6002     5.8006 N.ar    
  23 C23           -8.1966    -6.3746     4.5334 C.ar    
  24 F24           -9.3318    -6.8909     4.0138 F       
  25 F25           -1.1948     2.0522     0.0301 F       
  26 H26            1.1609     3.1749     0.0080 H       
  27 H27            3.3062     1.9720    -0.0201 H       
  28 H28            3.3472    -0.4876    -0.0337 H       
  29 H29            1.2414    -1.7583    -0.0196 H       
  30 H30           -1.7292    -0.3783    -2.0676 H       
  31 H31           -1.1138    -1.3357     2.0563 H       
  32 H32           -3.2455    -2.9469     3.1004 H       
  33 H33           -6.6785    -3.6050     2.1269 H       
  34 H34           -5.7993    -5.0772     1.6495 H       
  35 H35           -7.6112    -5.4355     2.6982 H       
  36 H36           -5.0157    -4.9689     6.0761 H       
  37 H37           -6.5856    -6.3318     7.3895 H       
@<TRIPOS>BOND
   1    1    6 ar
   2    1    2 ar
   3    1   25 1
   4    2    3 ar
   5    2   26 1
   6    3    4 ar
   7    3   27 1
   8    4    5 ar
   9    4   28 1
  10    5    6 ar
  11    5   29 1
  12    6    7 1
  13    7   10 2
  14    7    9 1
  15    8    9 2
  16    8   12 1
  17    9   30 1
  18   10   11 1
  19   10   31 1
  20   11   13 1
  21   11   12 1
  22   12   15 2
  23   13   14 2
  24   13   32 1
  25   14   15 1
  26   14   16 1
  27   16   17 1
  28   16   33 1
  29   16   34 1
  30   17   18 1
  31   18   20 ar
  32   18   19 ar
  33   19   23 ar
  34   19   35 1
  35   20   21 ar
  36   20   36 1
  37   21   22 ar
  38   21   37 1
  39   22   23 ar
  40   23   24 1

#	End of record

