#	Name: ASD01410844
#	Creating user name:	WinNT
#	Creation time:	15. 06. 2019 19:18

#	Modifying user name:	WinNT
#	Modification time:	15. 06. 2019 19:18

#	Program:	/corina/corina34_cracker 3.40 0067  02.08.2006

@<TRIPOS>MOLECULE
ASD01410844
  47   49    0    0    0
SMALL
NO_CHARGES


@<TRIPOS>ATOM
   1 C1             0.0631     1.2650    -0.8174 C.ar    
   2 C2             0.0413    -0.0932    -1.1476 C.ar    
   3 C3            -1.1285    -0.7176    -1.4534 C.ar    
   4 C4            -2.3318     0.0049    -1.4384 C.ar    
   5 C5            -2.3218     1.3821    -1.1047 C.ar    
   6 C6            -1.1002     2.0012    -0.7880 C.ar    
   7 O7             1.2449     1.8642    -0.5166 O.3     
   8 C8             2.4161     1.0465    -0.5588 C.3     
   9 C9             3.6398     1.8891    -0.1938 C.3     
  10 O10            3.7746     2.9627    -1.1273 O.3     
  11 O11            3.4769     2.4204     1.1228 O.3     
  12 C12            4.7019     2.8046     1.7502 C.3     
  13 C13            5.0501     3.6060    -1.0931 C.3     
  14 Cl14          -1.0568     3.6867    -0.3746 Cl      
  15 N15           -3.4657     2.0741    -1.0893 N.ar    
  16 C16           -3.5589    -0.6166    -1.7516 C.ar    
  17 Cl17          -3.6230    -2.3012    -2.1662 Cl      
  18 C18           -4.6941     0.1395    -1.7199 C.ar    
  19 C19           -4.6184     1.4994    -1.3808 C.ar    
  20 C20           -5.8588     2.3078    -1.3496 C.2     
  21 C21           -5.8730     3.6206    -1.0346 C.2     
  22 N22           -7.0538     1.8082    -1.6340 N.2     
  23 C23           -8.0565     2.6129    -1.5723 C.2     
  24 S24           -7.5416     4.1790    -1.1214 S.3     
  25 C25           -9.4848     2.2286    -1.8607 C.3     
  26 C26          -10.3413     2.4790    -0.6179 C.3     
  27 C27          -10.0146     3.0704    -3.0233 C.3     
  28 H28            0.9643    -0.6538    -1.1606 H       
  29 H29           -1.1310    -1.7673    -1.7074 H       
  30 H30            2.3133     0.2276     0.1533 H       
  31 H31            2.5404     0.6413    -1.5630 H       
  32 H32            4.5332     1.2654    -0.2259 H       
  33 H33            5.4141     1.9815     1.6912 H       
  34 H34            5.1123     3.6773     1.2422 H       
  35 H35            4.5138     3.0479     2.7959 H       
  36 H36            5.2169     4.1324    -2.0329 H       
  37 H37            5.0759     4.3181    -0.2682 H       
  38 H38            5.8305     2.8582    -0.9521 H       
  39 H39           -5.6489    -0.3073    -1.9550 H       
  40 H40           -5.0139     4.2217    -0.7754 H       
  41 H41           -9.5303     1.1725    -2.1266 H       
  42 H42          -11.3744     2.2011    -0.8265 H       
  43 H43           -9.9638     1.8793     0.2103 H       
  44 H44          -10.2958     3.5351    -0.3521 H       
  45 H45           -9.4044     2.8920    -3.9087 H       
  46 H46          -11.0477     2.7924    -3.2319 H       
  47 H47           -9.9691     4.1265    -2.7575 H       
@<TRIPOS>BOND
   1    1    2 ar
   2    1    7 1
   3    1    6 ar
   4    2    3 ar
   5    2   28 1
   6    3    4 ar
   7    3   29 1
   8    4    5 ar
   9    4   16 ar
  10    5    6 ar
  11    5   15 ar
  12    6   14 1
  13    7    8 1
  14    8    9 1
  15    8   30 1
  16    8   31 1
  17    9   10 1
  18    9   11 1
  19    9   32 1
  20   10   13 1
  21   11   12 1
  22   12   33 1
  23   12   34 1
  24   12   35 1
  25   13   36 1
  26   13   37 1
  27   13   38 1
  28   15   19 ar
  29   16   17 1
  30   16   18 ar
  31   18   19 ar
  32   18   39 1
  33   19   20 1
  34   20   21 2
  35   20   22 1
  36   21   24 1
  37   21   40 1
  38   22   23 2
  39   23   24 1
  40   23   25 1
  41   25   26 1
  42   25   27 1
  43   25   41 1
  44   26   42 1
  45   26   43 1
  46   26   44 1
  47   27   45 1
  48   27   46 1
  49   27   47 1

#	End of record

