#	Name: ASD00060002
#	Creating user name:	WinNT
#	Creation time:	15. 06. 2019 18:29

#	Modifying user name:	WinNT
#	Modification time:	15. 06. 2019 18:29

#	Program:	/corina/corina34_cracker 3.40 0067  02.08.2006

@<TRIPOS>MOLECULE
ASD00060002
  35   36    0    0    0
SMALL
NO_CHARGES


@<TRIPOS>ATOM
   1 C1            -0.0169     1.3943     0.0097 C.ar    
   2 C2             0.0021    -0.0041     0.0020 C.ar    
   3 C3            -1.1847    -0.7060     0.0101 C.ar    
   4 C4            -2.3925    -0.0303     0.0252 C.ar    
   5 C5            -2.4196     1.3534     0.0329 C.ar    
   6 C6            -1.2414     2.0697     0.0309 C.ar    
   7 C7             1.2453     2.1512     0.0017 C.2     
   8 C8             1.6191     3.0054     1.1856 C.3     
   9 C9             0.9636     4.3811     1.0492 C.3     
  10 C10            1.3375     5.2353     2.2331 C.ar    
  11 C11            2.0676     2.0804    -1.0655 C.2     
  12 C12            1.7048     1.2515    -2.2143 C.2     
  13 O13            0.6618     0.6260    -2.2077 O.2     
  14 O14            2.5271     1.1807    -3.2815 O.3     
  15 C15            2.4697     6.0261     2.1844 C.ar    
  16 C16            2.8126     6.8107     3.2714 C.ar    
  17 C17            2.0217     6.8030     4.4062 C.ar    
  18 C18            0.8893     6.0116     4.4538 C.ar    
  19 C19            0.5444     5.2321     3.3657 C.ar    
  20 Cl20           4.2352     7.8039     3.2111 Cl      
  21 H21            0.9438    -0.5327    -0.0105 H       
  22 H22           -1.1717    -1.7859     0.0041 H       
  23 H23           -3.3187    -0.5858     0.0308 H       
  24 H24           -3.3661     1.8735     0.0444 H       
  25 H25           -1.2641     3.1494     0.0368 H       
  26 H26            1.2733     2.5275     2.1022 H       
  27 H27            2.7023     3.1211     1.2226 H       
  28 H28            1.3094     4.8591     0.1327 H       
  29 H29           -0.1196     4.2654     1.0123 H       
  30 H30            2.9938     2.6358    -1.0714 H       
  31 H31            2.2029     0.6086    -3.9905 H       
  32 H32            3.0871     6.0314     1.2982 H       
  33 H33            2.2890     7.4149     5.2551 H       
  34 H34            0.2717     6.0055     5.3398 H       
  35 H35           -0.3405     4.6141     3.4032 H       
@<TRIPOS>BOND
   1    1    2 ar
   2    1    7 1
   3    1    6 ar
   4    2    3 ar
   5    2   21 1
   6    3    4 ar
   7    3   22 1
   8    4    5 ar
   9    4   23 1
  10    5    6 ar
  11    5   24 1
  12    6   25 1
  13    7    8 1
  14    7   11 2
  15    8    9 1
  16    8   26 1
  17    8   27 1
  18    9   10 1
  19    9   28 1
  20    9   29 1
  21   10   15 ar
  22   10   19 ar
  23   11   12 1
  24   11   30 1
  25   12   13 2
  26   12   14 1
  27   14   31 1
  28   15   16 ar
  29   15   32 1
  30   16   17 ar
  31   16   20 1
  32   17   18 ar
  33   17   33 1
  34   18   19 ar
  35   18   34 1
  36   19   35 1

#	End of record

