#	Name: ASD01208074
#	Creating user name:	WinNT
#	Creation time:	15. 06. 2019 19:09

#	Modifying user name:	WinNT
#	Modification time:	15. 06. 2019 19:09

#	Program:	/corina/corina34_cracker 3.40 0067  02.08.2006

@<TRIPOS>MOLECULE
ASD01208074
  66   70    0    0    0
SMALL
NO_CHARGES


@<TRIPOS>ATOM
   1 C1             0.0149     1.3382     0.2939 C.ar    
   2 C2             0.1580    -0.0378     0.1916 C.ar    
   3 C3            -0.9624    -0.8567     0.1757 C.ar    
   4 C4            -2.2288    -0.3025     0.2616 C.ar    
   5 C5            -2.3771     1.0812     0.3647 C.ar    
   6 C6            -1.2478     1.9003     0.3861 C.ar    
   7 C7            -3.7267     1.6771     0.4567 C.2     
   8 C8            -4.0096     3.0202     0.5615 C.2     
   9 N9            -4.9075     0.9897     0.4464 N.pl3   
  10 C10           -5.9402     1.8914     0.5503 C.2     
  11 C11           -5.3974     3.1559     0.6226 C.2     
  12 O12            1.1154     2.1356     0.3095 O.3     
  13 C13            0.8939     3.5472     0.2973 C.3     
  14 C14            2.1175     4.2504    -0.2936 C.3     
  15 O15            3.2421     4.0516     0.5654 O.3     
  16 C16            0.6638     4.0397     1.7275 C.3     
  17 O17           -0.8168    -2.2041     0.0753 O.3     
  18 C18           -1.2735    -2.8115    -1.0467 C.ar    
  19 C19           -1.2395    -4.2010    -1.1377 C.ar    
  20 N20           -1.7509    -2.0761    -2.0388 N.ar    
  21 C21           -2.2065    -2.6191    -3.1484 C.ar    
  22 C22           -2.2009    -4.0040    -3.3170 C.ar    
  23 C23           -1.7067    -4.8134    -2.2832 C.ar    
  24 C24           -7.3730     1.5640     0.5755 C.2     
  25 N25           -8.3069     2.4645     0.6753 N.2     
  26 C26           -9.6145     1.7801     0.6850 C.3     
  27 C27           -9.2090     0.3119     0.9610 C.3     
  28 O28           -7.8436     0.3010     0.4913 O.3     
  29 C29           -2.7129    -4.6090    -4.5624 C.2     
  30 N30           -2.8543    -5.9462    -4.6534 N.am    
  31 O31           -3.0070    -3.9010    -5.5060 O.2     
  32 C32           -3.3641    -6.8912    -5.6584 C.3     
  33 C33           -3.6995    -7.8501    -4.5077 C.3     
  34 C34           -2.5608    -7.1030    -3.7940 C.3     
  35 Cl35          -0.6160    -5.1517     0.1743 Cl      
  36 C36            4.4437     4.6713     0.1025 C.3     
  37 C37           -9.2839    -0.0069     2.4555 C.3     
  38 H38            1.1441    -0.4731     0.1237 H       
  39 H39           -3.1002    -0.9404     0.2485 H       
  40 H40           -1.3582     2.9716     0.4661 H       
  41 H41           -3.2883     3.8235     0.5915 H       
  42 H42           -5.0014     0.0267     0.3771 H       
  43 H43           -5.9454     4.0823     0.7110 H       
  44 H44            0.0171     3.7722    -0.3099 H       
  45 H45            2.3345     3.8360    -1.2781 H       
  46 H46            1.9144     5.3174    -0.3852 H       
  47 H47            0.4948     5.1165     1.7182 H       
  48 H48           -0.2080     3.5388     2.1484 H       
  49 H49            1.5406     3.8147     2.3347 H       
  50 H50           -2.5885    -1.9861    -3.9357 H       
  51 H51           -1.6884    -5.8887    -2.3827 H       
  52 H52          -10.2493     2.1651     1.4832 H       
  53 H53          -10.1090     1.8720    -0.2820 H       
  54 H54           -9.8239    -0.3789     0.3840 H       
  55 H55           -4.2432    -6.5270    -6.1901 H       
  56 H56           -2.5926    -7.2703    -6.3285 H       
  57 H57           -4.6849    -7.6940    -4.0687 H       
  58 H58           -3.4807    -8.8966    -4.7198 H       
  59 H59           -1.5779    -7.5402    -3.9696 H       
  60 H60           -2.7579    -6.9179    -2.7381 H       
  61 H61            5.2498     4.4739     0.8092 H       
  62 H62            4.7090     4.2656    -0.8738 H       
  63 H63            4.2889     5.7470     0.0192 H       
  64 H64          -10.3036     0.1461     2.8090 H       
  65 H65           -8.9940    -1.0445     2.6207 H       
  66 H66           -8.6076     0.6507     3.0016 H       
@<TRIPOS>BOND
   1    1    2 ar
   2    1   12 1
   3    1    6 ar
   4    2    3 ar
   5    2   38 1
   6    3    4 ar
   7    3   17 1
   8    4    5 ar
   9    4   39 1
  10    5    6 ar
  11    5    7 1
  12    6   40 1
  13    7    8 2
  14    7    9 1
  15    8   11 1
  16    8   41 1
  17    9   10 1
  18    9   42 1
  19   10   11 2
  20   10   24 1
  21   11   43 1
  22   12   13 1
  23   13   14 1
  24   13   16 1
  25   13   44 1
  26   14   15 1
  27   14   45 1
  28   14   46 1
  29   15   36 1
  30   16   47 1
  31   16   48 1
  32   16   49 1
  33   17   18 1
  34   18   19 ar
  35   18   20 ar
  36   19   35 1
  37   19   23 ar
  38   20   21 ar
  39   21   22 ar
  40   21   50 1
  41   22   23 ar
  42   22   29 1
  43   23   51 1
  44   24   25 2
  45   24   28 1
  46   25   26 1
  47   26   27 1
  48   26   52 1
  49   26   53 1
  50   27   28 1
  51   27   37 1
  52   27   54 1
  53   29   30 am
  54   29   31 2
  55   30   32 1
  56   30   34 1
  57   32   33 1
  58   32   55 1
  59   32   56 1
  60   33   34 1
  61   33   57 1
  62   33   58 1
  63   34   59 1
  64   34   60 1
  65   36   61 1
  66   36   62 1
  67   36   63 1
  68   37   64 1
  69   37   65 1
  70   37   66 1

#	End of record

