#	Name: ASD07480050
#	Creating user name:	WinNT
#	Creation time:	15. 06. 2019 21:11

#	Modifying user name:	WinNT
#	Modification time:	15. 06. 2019 21:11

#	Program:	/corina/corina34_cracker 3.40 0067  02.08.2006

@<TRIPOS>MOLECULE
ASD07480050
  67   70    0    0    0
SMALL
NO_CHARGES


@<TRIPOS>ATOM
   1 C1            -0.0163    -0.8936     0.6700 C.ar    
   2 C2             1.3453    -0.9204     0.9174 C.ar    
   3 F3             2.0138     0.2311     1.1463 F       
   4 C4             2.0223    -2.1302     0.9304 C.ar    
   5 F5             3.3512    -2.1589     1.1721 F       
   6 C6             1.3352    -3.3087     0.6960 C.ar    
   7 C7            -0.0244    -3.2785     0.4493 C.ar    
   8 C8            -0.6995    -2.0721     0.4363 C.ar    
   9 C9            -2.1820    -2.0420     0.1670 C.3     
  10 C10           -2.9461    -2.8952     1.2103 C.3     
  11 N11           -4.2006    -3.2556     0.5014 N.3     
  12 C12           -4.8335    -4.4304     1.1156 C.3     
  13 C13           -6.2331    -4.6215     0.5278 C.3     
  14 O14           -6.1272    -4.9329    -0.8628 O.3     
  15 C15           -7.3850    -5.1319    -1.5113 C.3     
  16 C16           -3.8075    -3.5356    -0.8967 C.3     
  17 C17           -2.5102    -2.7512    -1.1669 C.3     
  18 N18           -2.7244    -1.7643    -2.2282 N.am    
  19 C19           -2.5801    -2.1216    -3.5197 C.2     
  20 O20           -2.2721    -3.2630    -3.8040 O.2     
  21 N21           -2.7771    -1.2138    -4.4961 N.am    
  22 C22           -2.5378    -1.5573    -5.8262 C.2     
  23 C23           -3.4768    -1.7101    -6.7988 C.2     
  24 C24           -4.9645    -1.5380    -6.6311 C.3     
  25 C25           -2.8142    -2.0562    -7.9850 C.2     
  26 O26           -3.4051    -2.2946    -9.1860 O.3     
  27 C27           -2.5457    -2.6348   -10.2758 C.3     
  28 C28           -3.3847    -2.8652   -11.5343 C.3     
  29 N29           -1.5270    -2.1102    -7.7388 N.2     
  30 N30           -1.3216    -1.7951    -6.3895 N.pl3   
  31 C31           -0.0847    -1.7431    -5.7339 C.ar    
  32 C32            0.8752    -2.7156    -5.9809 C.ar    
  33 C33            2.0936    -2.6616    -5.3329 C.ar    
  34 C34            2.3580    -1.6406    -4.4385 C.ar    
  35 C35            1.4040    -0.6709    -4.1899 C.ar    
  36 C36            0.1861    -0.7157    -4.8398 C.ar    
  37 H37           -0.5456     0.0478     0.6639 H       
  38 H38            1.8615    -4.2517     0.7056 H       
  39 H39           -0.5599    -4.1983     0.2661 H       
  40 H40           -2.5510    -1.0163     0.1627 H       
  41 H41           -2.3782    -3.7897     1.4661 H       
  42 H42           -3.1635    -2.3081     2.1026 H       
  43 H43           -4.2305    -5.3155     0.9131 H       
  44 H44           -4.9091    -4.2809     2.1927 H       
  45 H45           -6.7364    -5.4380     1.0457 H       
  46 H46           -6.8077    -3.7036     0.6519 H       
  47 H47           -7.2187    -5.3639    -2.5633 H       
  48 H48           -7.9121    -5.9589    -1.0357 H       
  49 H49           -7.9835    -4.2246    -1.4295 H       
  50 H50           -3.6297    -4.6032    -1.0257 H       
  51 H51           -4.5915    -3.2022    -1.5767 H       
  52 H52           -1.7060    -3.4335    -1.4422 H       
  53 H53           -2.9700    -0.8538    -2.0014 H       
  54 H54           -3.0854    -0.3214    -4.2736 H       
  55 H55           -5.2353    -0.5014    -6.8318 H       
  56 H56           -5.4869    -2.1918    -7.3294 H       
  57 H57           -5.2473    -1.7963    -5.6106 H       
  58 H58           -1.8426    -1.8207   -10.4519 H       
  59 H59           -1.9954    -3.5443   -10.0344 H       
  60 H60           -4.0878    -3.6794   -11.3582 H       
  61 H61           -3.9349    -1.9558   -11.7757 H       
  62 H62           -2.7291    -3.1247   -12.3656 H       
  63 H63            0.6690    -3.5136    -6.6788 H       
  64 H64            2.8406    -3.4177    -5.5246 H       
  65 H65            3.3114    -1.6007    -3.9327 H       
  66 H66            1.6153     0.1279    -3.4945 H       
  67 H67           -0.5586     0.0419    -4.6452 H       
@<TRIPOS>BOND
   1    1    8 ar
   2    1    2 ar
   3    1   37 1
   4    2    4 ar
   5    2    3 1
   6    4    6 ar
   7    4    5 1
   8    6    7 ar
   9    6   38 1
  10    7    8 ar
  11    7   39 1
  12    8    9 1
  13    9   10 1
  14    9   17 1
  15    9   40 1
  16   10   11 1
  17   10   41 1
  18   10   42 1
  19   11   12 1
  20   11   16 1
  21   12   13 1
  22   12   43 1
  23   12   44 1
  24   13   14 1
  25   13   45 1
  26   13   46 1
  27   14   15 1
  28   15   47 1
  29   15   48 1
  30   15   49 1
  31   16   17 1
  32   16   50 1
  33   16   51 1
  34   17   18 1
  35   17   52 1
  36   18   19 am
  37   18   53 1
  38   19   20 2
  39   19   21 am
  40   21   22 1
  41   21   54 1
  42   22   23 2
  43   22   30 1
  44   23   24 1
  45   23   25 1
  46   24   55 1
  47   24   56 1
  48   24   57 1
  49   25   26 1
  50   25   29 2
  51   26   27 1
  52   27   28 1
  53   27   58 1
  54   27   59 1
  55   28   60 1
  56   28   61 1
  57   28   62 1
  58   29   30 1
  59   30   31 1
  60   31   32 ar
  61   31   36 ar
  62   32   33 ar
  63   32   63 1
  64   33   34 ar
  65   33   64 1
  66   34   35 ar
  67   34   65 1
  68   35   36 ar
  69   35   66 1
  70   36   67 1

#	End of record

