#	Name: ASD05303051
#	Creating user name:	WinNT
#	Creation time:	15. 06. 2019 20:58

#	Modifying user name:	WinNT
#	Modification time:	15. 06. 2019 20:58

#	Program:	/corina/corina34_cracker 3.40 0067  02.08.2006

@<TRIPOS>MOLECULE
ASD05303051
  31   32    0    0    0
SMALL
NO_CHARGES


@<TRIPOS>ATOM
   1 C1            -0.0126     1.3831     0.0697 C.ar    
   2 C2             0.1006     0.1416     0.6669 C.ar    
   3 C3             1.3041    -0.5380     0.6337 C.ar    
   4 C4             2.4010     0.0257    -0.0003 C.ar    
   5 C5             2.2861     1.2768    -0.6024 C.ar    
   6 C6             1.0771     1.9515    -0.5643 C.ar    
   7 O7             3.3585     1.8346    -1.2251 O.3     
   8 N8             3.6223    -0.6613    -0.0348 N.am    
   9 C9             3.6423    -2.0056     0.0604 C.2     
  10 O10            2.6092    -2.6167     0.2499 O.2     
  11 O11            4.8071    -2.6714    -0.0545 O.3     
  12 C12            6.1409    -4.6857    -0.0948 C.ar    
  13 C13            6.9432    -4.8599     1.0173 C.ar    
  14 C14            8.2138    -5.3860     0.8774 C.ar    
  15 C15            8.6820    -5.7383    -0.3747 C.ar    
  16 C16            7.8793    -5.5650    -1.4867 C.ar    
  17 C17            6.6092    -5.0376    -1.3469 C.ar    
  18 C18            4.7533    -4.1180     0.0585 C.3     
  19 H19           -0.9558     1.9086     0.0945 H       
  20 H20           -0.7531    -0.2984     1.1609 H       
  21 H21            1.3899    -1.5076     1.1017 H       
  22 H22            0.9852     2.9215    -1.0302 H       
  23 H23            3.4299     1.6095    -2.1628 H       
  24 H24            4.4531    -0.1692    -0.1273 H       
  25 H25            6.5774    -4.5846     1.9955 H       
  26 H26            8.8409    -5.5214     1.7462 H       
  27 H27            9.6750    -6.1487    -0.4841 H       
  28 H28            8.2453    -5.8396    -2.4650 H       
  29 H29            5.9824    -4.9015    -2.2158 H       
  30 H30            4.3547    -4.3916     1.0354 H       
  31 H31            4.1080    -4.5198    -0.7227 H       
@<TRIPOS>BOND
   1    1    2 ar
   2    1    6 ar
   3    1   19 1
   4    2    3 ar
   5    2   20 1
   6    3    4 ar
   7    3   21 1
   8    4    5 ar
   9    4    8 1
  10    5    6 ar
  11    5    7 1
  12    6   22 1
  13    7   23 1
  14    8    9 am
  15    8   24 1
  16    9   10 2
  17    9   11 1
  18   11   18 1
  19   12   13 ar
  20   12   17 ar
  21   12   18 1
  22   13   14 ar
  23   13   25 1
  24   14   15 ar
  25   14   26 1
  26   15   16 ar
  27   15   27 1
  28   16   17 ar
  29   16   28 1
  30   17   29 1
  31   18   30 1
  32   18   31 1

#	End of record

