#	Name: ASD03092284
#	Creating user name:	WinNT
#	Creation time:	15. 06. 2019 20:32

#	Modifying user name:	WinNT
#	Modification time:	15. 06. 2019 20:32

#	Program:	/corina/corina34_cracker 3.40 0067  02.08.2006

@<TRIPOS>MOLECULE
ASD03092284
  27   28    0    0    0
SMALL
NO_CHARGES


@<TRIPOS>ATOM
   1 C1            -0.0167     1.3777     0.0096 C.ar    
   2 C2             0.0021    -0.0041     0.0020 C.ar    
   3 C3             1.2085    -0.6793    -0.0131 C.ar    
   4 C4             2.3965     0.0272    -0.0202 C.ar    
   5 C5             2.3790     1.4094    -0.0122 C.ar    
   6 C6             1.1723     2.0855     0.0021 C.ar    
   7 Cl7            1.1496     3.8214     0.0116 Cl      
   8 C8             3.6744     2.1796    -0.0189 C.3     
   9 C9             3.7438     3.0742    -1.2648 C.3     
  10 C10            5.0783     3.8184    -1.2698 C.3     
  11 C11            5.3024     4.5370     0.0274 C.2     
  12 C12            4.6939     4.2017     1.1585 C.2     
  13 C13            3.7404     3.0877     1.1918 C.2     
  14 O14            3.0283     2.9002     2.1561 O.2     
  15 N15            4.8098     1.2475    -0.0089 N.3     
  16 H16           -0.9591     1.9050     0.0170 H       
  17 H17           -0.9258    -0.5566     0.0083 H       
  18 H18            1.2227    -1.7592    -0.0191 H       
  19 H19            3.3386    -0.5008    -0.0317 H       
  20 H20            3.6664     2.4583    -2.1608 H       
  21 H21            2.9252     3.7935    -1.2433 H       
  22 H22            5.8858     3.1032    -1.4264 H       
  23 H23            5.0806     4.5425    -2.0845 H       
  24 H24            5.9927     5.3674     0.0421 H       
  25 H25            4.9031     4.7540     2.0627 H       
  26 H26            4.7898     0.6621     0.8126 H       
  27 H27            4.8274     0.6900    -0.8498 H       
@<TRIPOS>BOND
   1    1    2 ar
   2    1    6 ar
   3    1   16 1
   4    2    3 ar
   5    2   17 1
   6    3    4 ar
   7    3   18 1
   8    4    5 ar
   9    4   19 1
  10    5    6 ar
  11    5    8 1
  12    6    7 1
  13    8    9 1
  14    8   15 1
  15    8   13 1
  16    9   10 1
  17    9   20 1
  18    9   21 1
  19   10   11 1
  20   10   22 1
  21   10   23 1
  22   11   12 2
  23   11   24 1
  24   12   13 1
  25   12   25 1
  26   13   14 2
  27   15   26 1
  28   15   27 1

#	End of record

