#	Name: ASD03080043
#	Creating user name:	WinNT
#	Creation time:	15. 06. 2019 20:26

#	Modifying user name:	WinNT
#	Modification time:	15. 06. 2019 20:26

#	Program:	/corina/corina34_cracker 3.40 0067  02.08.2006

@<TRIPOS>MOLECULE
ASD03080043
  25   27    0    0    0
SMALL
NO_CHARGES


@<TRIPOS>ATOM
   1 O1            -0.0144     1.2085     0.0087 O.3     
   2 N2             0.0021    -0.0041     0.0020 N.2     
   3 C3             1.2345    -0.4420    -0.0121 C.2     
   4 N4             2.0453     0.6365    -0.0141 N.2     
   5 C5             1.2410     1.6827    -0.0008 C.2     
   6 C6             2.9956     3.4583    -0.0085 C.ar    
   7 C7             1.6456     3.1046     0.0030 C.ar    
   8 C8             0.6811     4.1188     0.0177 C.ar    
   9 C9             1.1122     5.4340     0.0202 C.ar    
  10 C10            2.4691     5.7016     0.0082 C.ar    
  11 N11            3.3560     4.7248    -0.0060 N.ar    
  12 C12            1.1634    -4.2057    -0.0321 C.ar    
  13 C13            0.7218    -2.8958    -0.0209 C.ar    
  14 C14            1.6624    -1.8641    -0.0238 C.ar    
  15 C15            3.0175    -2.2055    -0.0385 C.ar    
  16 C16            3.3726    -3.5388    -0.0496 C.ar    
  17 N17            2.4531    -4.4848    -0.0459 N.ar    
  18 Cl18           0.0066    -5.5001    -0.0214 Cl      
  19 H19            3.7512     2.6867    -0.0154 H       
  20 H20           -0.3724     3.8813     0.0266 H       
  21 H21            0.3966     6.2428     0.0311 H       
  22 H22            2.8082     6.7270     0.0101 H       
  23 H23           -0.3351    -2.6738    -0.0100 H       
  24 H24            3.7760    -1.4367    -0.0416 H       
  25 H25            4.4175    -3.8117    -0.0610 H       
@<TRIPOS>BOND
   1    1    2 1
   2    1    5 1
   3    2    3 2
   4    3    4 1
   5    3   14 1
   6    4    5 2
   7    5    7 1
   8    6    7 ar
   9    6   11 ar
  10    6   19 1
  11    7    8 ar
  12    8    9 ar
  13    8   20 1
  14    9   10 ar
  15    9   21 1
  16   10   11 ar
  17   10   22 1
  18   12   13 ar
  19   12   17 ar
  20   12   18 1
  21   13   14 ar
  22   13   23 1
  23   14   15 ar
  24   15   16 ar
  25   15   24 1
  26   16   17 ar
  27   16   25 1

#	End of record

