#	Name: ASD01230209
#	Creating user name:	WinNT
#	Creation time:	15. 06. 2019 19:12

#	Modifying user name:	WinNT
#	Modification time:	15. 06. 2019 19:12

#	Program:	/corina/corina34_cracker 3.40 0067  02.08.2006

@<TRIPOS>MOLECULE
ASD01230209
  28   29    0    0    0
SMALL
NO_CHARGES


@<TRIPOS>ATOM
   1 Cl1            0.8741    -0.6013     1.4627 Cl      
   2 Cl2           -1.6894    -0.6281     0.0148 Cl      
   3 Cl3            6.1533     2.0223    -1.7072 Cl      
   4 C4            -0.0187     1.5258     0.0104 C.3     
   5 C5             0.0021    -0.0041     0.0020 C.3     
   6 N6             1.3507     2.0345     0.0001 N.pl3   
   7 C7             2.1978     1.9293    -1.0998 C.ar    
   8 C8             3.5743     2.0078    -0.8973 C.ar    
   9 C9             4.4400     1.9243    -1.9695 C.ar    
  10 C10            3.9473     1.7631    -3.2526 C.ar    
  11 S11            5.0558     1.6664    -4.6187 S.o2    
  12 N12            5.8177     3.1320    -4.7365 N.am    
  13 O13            6.0551     0.7225    -4.2585 O.2     
  14 O14            4.2493     1.5388    -5.7817 O.2     
  15 C15            2.5822     1.6777    -3.4599 C.ar    
  16 C16            1.7154     1.7526    -2.3901 C.ar    
  17 S17           -0.0257     1.6035    -2.6560 S.o2    
  18 O18           -0.3874     2.6177    -3.5833 O.2     
  19 O19           -0.2928     0.2228    -2.8600 O.2     
  20 N20           -0.7158     2.0185    -1.1949 N.am    
  21 H21           -0.5334     1.8795     0.9037 H       
  22 H22            0.5123    -0.3556    -0.8948 H       
  23 H23            1.6868     2.4679     0.8002 H       
  24 H24            3.9652     2.1347     0.1015 H       
  25 H25            5.6073     3.8399    -4.1076 H       
  26 H26            6.4744     3.2825    -5.4344 H       
  27 H27            2.1950     1.5529    -4.4604 H       
  28 H28           -1.5252     2.5502    -1.1403 H       
@<TRIPOS>BOND
   1    1    5 1
   2    2    5 1
   3    3    9 1
   4    4    5 1
   5    4    6 1
   6    4   20 1
   7    4   21 1
   8    5   22 1
   9    6    7 1
  10    6   23 1
  11    7    8 ar
  12    7   16 ar
  13    8    9 ar
  14    8   24 1
  15    9   10 ar
  16   10   11 1
  17   10   15 ar
  18   11   12 am
  19   11   13 2
  20   11   14 2
  21   12   25 1
  22   12   26 1
  23   15   16 ar
  24   15   27 1
  25   16   17 1
  26   17   18 2
  27   17   19 2
  28   17   20 am
  29   20   28 1

#	End of record

