#	Name: ASD04220024
#	Creating user name:	WinNT
#	Creation time:	15. 06. 2019 20:48

#	Modifying user name:	WinNT
#	Modification time:	15. 06. 2019 20:48

#	Program:	/corina/corina34_cracker 3.40 0067  02.08.2006

@<TRIPOS>MOLECULE
ASD04220024
  64   66    0    0    0
SMALL
NO_CHARGES


@<TRIPOS>ATOM
   1 C1             0.0411     1.6412    -0.0330 C.3     
   2 N2            -0.0508     0.1827     0.0935 N.am    
   3 C3             0.8131    -0.6267    -0.7821 C.3     
   4 C4             2.2653    -0.3385    -0.4043 C.3     
   5 C5             2.5058     1.1439    -0.2906 C.ar    
   6 C6             3.8237     1.5925    -0.3692 C.ar    
   7 C7             4.1160     2.9408    -0.2630 C.ar    
   8 C8             3.0949     3.8527    -0.0771 C.ar    
   9 C9             1.7853     3.4107    -0.0028 C.ar    
  10 C10            1.4895     2.0539    -0.1130 C.ar    
  11 C11            0.5147    -2.0901    -0.5812 C.2     
  12 O12            1.1747    -2.7404     0.1943 O.2     
  13 O13           -0.4843    -2.6712    -1.2639 O.3     
  14 O14            0.7797     4.3078     0.1794 O.3     
  15 C15            1.1494     5.6841     0.2853 C.3     
  16 O16            4.8307     0.6970    -0.5513 O.3     
  17 C17            6.1587     1.2198    -0.6235 C.3     
  18 C18           -0.8916    -0.3931     0.9755 C.2     
  19 C19           -1.6730     0.4615     1.9399 C.3     
  20 C20           -2.5447    -0.4332     2.8234 C.3     
  21 C21           -3.3380     0.4345     3.8025 C.3     
  22 O22           -1.0193    -1.5990     0.9931 O.2     
  23 C23           -4.1966    -0.4468     4.6727 C.ar    
  24 C24           -3.6646    -1.0197     5.8186 C.ar    
  25 C25           -4.4548    -1.8303     6.6196 C.ar    
  26 C26           -5.7720    -2.0668     6.2767 C.ar    
  27 C27           -6.3040    -1.4936     5.1314 C.ar    
  28 C28           -5.5148    -0.6793     4.3325 C.ar    
  29 O29           -7.6006    -1.7264     4.7939 O.3     
  30 C30           -8.3560    -2.5710     5.6646 C.3     
  31 O31           -2.3681    -0.7869     6.1561 O.3     
  32 C32           -1.8865    -1.4090     7.3491 C.3     
  33 C33           -0.7148    -4.0839    -1.0202 C.3     
  34 H34           -0.4774     1.9603    -0.9371 H       
  35 H35           -0.4223     2.1105     0.8349 H       
  36 H36            0.6418    -0.3541    -1.8234 H       
  37 H37            2.4877    -0.8121     0.5519 H       
  38 H38            2.9232    -0.7508    -1.1692 H       
  39 H39            5.1397     3.2794    -0.3249 H       
  40 H40            3.3175     4.9060     0.0096 H       
  41 H41            0.2551     6.2906     0.4280 H       
  42 H42            1.8177     5.8164     1.1361 H       
  43 H43            1.6574     5.9950    -0.6276 H       
  44 H44            6.3947     1.7413     0.3041 H       
  45 H45            6.8638     0.4016    -0.7698 H       
  46 H46            6.2304     1.9153    -1.4597 H       
  47 H47           -0.9827     1.0278     2.5652 H       
  48 H48           -2.3075     1.1508     1.3827 H       
  49 H49           -3.2350    -0.9994     2.1981 H       
  50 H50           -1.9102    -1.1225     3.3805 H       
  51 H51           -2.6478     1.0007     4.4278 H       
  52 H52           -3.9725     1.1238     3.2454 H       
  53 H53           -4.0404    -2.2769     7.5113 H       
  54 H54           -6.3874    -2.6983     6.9003 H       
  55 H55           -5.9303    -0.2296     3.4428 H       
  56 H56           -9.3710    -2.6737     5.2806 H       
  57 H57           -7.8860    -3.5530     5.7162 H       
  58 H58           -8.3874    -2.1304     6.6611 H       
  59 H59           -0.8408    -1.1417     7.5015 H       
  60 H60           -2.4764    -1.0683     8.2000 H       
  61 H61           -1.9750    -2.4913     7.2556 H       
  62 H62            0.1820    -4.6479    -1.2766 H       
  63 H63           -0.9517    -4.2371     0.0326 H       
  64 H64           -1.5477    -4.4273    -1.6337 H       
@<TRIPOS>BOND
   1    1    2 1
   2    1   10 1
   3    1   34 1
   4    1   35 1
   5    2    3 1
   6    2   18 am
   7    3    4 1
   8    3   11 1
   9    3   36 1
  10    4    5 1
  11    4   37 1
  12    4   38 1
  13    5    6 ar
  14    5   10 ar
  15    6    7 ar
  16    6   16 1
  17    7    8 ar
  18    7   39 1
  19    8    9 ar
  20    8   40 1
  21    9   10 ar
  22    9   14 1
  23   11   12 2
  24   11   13 1
  25   13   33 1
  26   14   15 1
  27   15   41 1
  28   15   42 1
  29   15   43 1
  30   16   17 1
  31   17   44 1
  32   17   45 1
  33   17   46 1
  34   18   19 1
  35   18   22 2
  36   19   20 1
  37   19   47 1
  38   19   48 1
  39   20   21 1
  40   20   49 1
  41   20   50 1
  42   21   23 1
  43   21   51 1
  44   21   52 1
  45   23   24 ar
  46   23   28 ar
  47   24   25 ar
  48   24   31 1
  49   25   26 ar
  50   25   53 1
  51   26   27 ar
  52   26   54 1
  53   27   28 ar
  54   27   29 1
  55   28   55 1
  56   29   30 1
  57   30   56 1
  58   30   57 1
  59   30   58 1
  60   31   32 1
  61   32   59 1
  62   32   60 1
  63   32   61 1
  64   33   62 1
  65   33   63 1
  66   33   64 1

#	End of record

