#	Name: ASD03092277
#	Creating user name:	WinNT
#	Creation time:	15. 06. 2019 20:32

#	Modifying user name:	WinNT
#	Modification time:	15. 06. 2019 20:32

#	Program:	/corina/corina34_cracker 3.40 0067  02.08.2006

@<TRIPOS>MOLECULE
ASD03092277
  53   56    0    0    0
SMALL
NO_CHARGES


@<TRIPOS>ATOM
   1 C1             0.9044     0.9689     0.3263 C.3     
   2 C2             0.3685    -0.4302     0.1634 C.ar    
   3 C3             0.4042    -1.0321    -1.0771 C.ar    
   4 C4            -0.0961    -2.3318    -1.2152 C.ar    
   5 C5            -0.6132    -2.9646    -0.0791 C.ar    
   6 C6            -0.6097    -2.2883     1.1229 C.ar    
   7 C7            -1.1630    -2.9581     2.3542 C.3     
   8 N8            -0.1235    -1.0647     1.2105 N.ar    
   9 C9            -0.0793    -3.0174    -2.5259 C.2     
  10 C10           -0.0197    -2.4173    -3.7514 C.2     
  11 C11           -0.0244    -3.4262    -4.7228 C.2     
  12 N12            0.0268    -3.2290    -6.1080 N.pl3   
  13 C13            0.1433    -4.3267    -6.9667 C.ar    
  14 C14            0.3715    -5.5943    -6.4485 C.ar    
  15 C15            0.4862    -6.6773    -7.2990 C.ar    
  16 C16            0.3747    -6.5012    -8.6654 C.ar    
  17 C17            0.1472    -5.2395    -9.1877 C.ar    
  18 Cl18           0.0073    -5.0234   -10.9045 Cl      
  19 C19            0.0251    -4.1517    -8.3416 C.ar    
  20 F20           -0.2025    -2.9210    -8.8502 F       
  21 N21           -0.0841    -4.5883    -4.1144 N.2     
  22 N22           -0.1143    -4.3647    -2.7321 N.pl3   
  23 C23           -0.1761    -5.3952    -1.6927 C.3     
  24 C24           -1.6106    -5.8014    -1.4726 C.2     
  25 O25           -2.4943    -5.2812    -2.1202 O.2     
  26 N26           -1.9114    -6.7426    -0.5560 N.am    
  27 C27           -3.3059    -7.1374    -0.3421 C.3     
  28 C28           -3.6424    -8.5331    -0.8932 C.3     
  29 C29           -3.2189    -9.0897     0.4763 C.3     
  30 C30           -3.5755    -7.7119     1.0587 C.3     
  31 H31            1.9653     0.9252     0.5725 H       
  32 H32            0.7697     1.5202    -0.6043 H       
  33 H33            0.3656     1.4731     1.1286 H       
  34 H34            0.8118    -0.5081    -1.9290 H       
  35 H35           -1.0093    -3.9673    -0.1427 H       
  36 H36           -0.3655    -3.5000     2.8625 H       
  37 H37           -1.5740    -2.2034     3.0247 H       
  38 H38           -1.9497    -3.6553     2.0661 H       
  39 H39            0.0227    -1.3544    -3.9380 H       
  40 H40           -0.0185    -2.3310    -6.4720 H       
  41 H41            0.4596    -5.7338    -5.3812 H       
  42 H42            0.6637    -7.6632    -6.8953 H       
  43 H43            0.4656    -7.3499    -9.3272 H       
  44 H44            0.4032    -6.2634    -2.0069 H       
  45 H45            0.2361    -5.0000    -0.7643 H       
  46 H46           -1.2046    -7.1586    -0.0381 H       
  47 H47           -4.0150    -6.3656    -0.6414 H       
  48 H48           -4.7010    -8.6722    -1.1127 H       
  49 H49           -2.9946    -8.8473    -1.7116 H       
  50 H50           -3.8587    -9.8951     0.8371 H       
  51 H51           -2.1576    -9.3297     0.5408 H       
  52 H52           -2.8735    -7.3631     1.8162 H       
  53 H53           -4.6157    -7.6265     1.3728 H       
@<TRIPOS>BOND
   1    1    2 1
   2    1   31 1
   3    1   32 1
   4    1   33 1
   5    2    8 ar
   6    2    3 ar
   7    3    4 ar
   8    3   34 1
   9    4    5 ar
  10    4    9 1
  11    5    6 ar
  12    5   35 1
  13    6    7 1
  14    6    8 ar
  15    7   36 1
  16    7   37 1
  17    7   38 1
  18    9   22 1
  19    9   10 2
  20   10   11 1
  21   10   39 1
  22   11   12 1
  23   11   21 2
  24   12   13 1
  25   12   40 1
  26   13   19 ar
  27   13   14 ar
  28   14   15 ar
  29   14   41 1
  30   15   16 ar
  31   15   42 1
  32   16   17 ar
  33   16   43 1
  34   17   18 1
  35   17   19 ar
  36   19   20 1
  37   21   22 1
  38   22   23 1
  39   23   24 1
  40   23   44 1
  41   23   45 1
  42   24   25 2
  43   24   26 am
  44   26   27 1
  45   26   46 1
  46   27   30 1
  47   27   28 1
  48   27   47 1
  49   28   29 1
  50   28   48 1
  51   28   49 1
  52   29   30 1
  53   29   50 1
  54   29   51 1
  55   30   52 1
  56   30   53 1

#	End of record

