#	Name: ASD04220047
#	Creating user name:	WinNT
#	Creation time:	15. 06. 2019 20:48

#	Modifying user name:	WinNT
#	Modification time:	15. 06. 2019 20:48

#	Program:	/corina/corina34_cracker 3.40 0067  02.08.2006

@<TRIPOS>MOLECULE
ASD04220047
  33   33    0    0    0
SMALL
NO_CHARGES


@<TRIPOS>ATOM
   1 C1            -0.0184     1.5028     0.0103 C.3     
   2 C2             0.0021    -0.0041     0.0020 C.2     
   3 N3             0.0227    -0.7885     1.1050 N.pl3   
   4 C4             0.0377    -2.1228     0.7477 C.ar    
   5 C5             0.0258    -2.1828    -0.6550 C.ar    
   6 C6            -0.0034    -0.7831    -1.1188 C.2     
   7 C7             0.0604    -3.3034     1.4825 C.ar    
   8 C8             0.0715    -4.5186     0.8337 C.ar    
   9 C9             0.0602    -4.5790    -0.5564 C.ar    
  10 C10            0.0363    -3.4153    -1.3024 C.ar    
  11 C11           -0.0245    -0.3194    -2.5106 C.2     
  12 O12           -1.0861    -0.1459    -3.0776 O.2     
  13 O13            0.0719    -5.7858    -1.1827 O.3     
  14 S14           -1.3130    -6.3550    -1.4557 S.o2    
  15 O15           -1.1318    -7.7610    -1.7820 O.co2   
  16 O16           -2.0888    -6.1725    -0.2389 O.co2   
  17 O17           -1.8633    -5.6021    -2.5721 O.co2   
  18 O18            1.1334    -0.0855    -3.1609 O.3     
  19 C19            2.4417     0.5815    -5.1035 C.3     
  20 C20            1.0366     0.3715    -4.5357 C.3     
  21 H21            1.0042     1.8801     0.0026 H       
  22 H22           -0.5455     1.8639    -0.8728 H       
  23 H23           -0.5286     1.8543     0.9071 H       
  24 H24            0.0268    -0.4600     2.0177 H       
  25 H25            0.0697    -3.2675     2.5619 H       
  26 H26            0.0895    -5.4325     1.4090 H       
  27 H27            0.0273    -3.4620    -2.3813 H       
  28 H28            2.9662     1.3290    -4.5082 H       
  29 H29            2.9910    -0.3595    -5.0712 H       
  30 H30            2.3690     0.9245    -6.1356 H       
  31 H31            0.5121    -0.3760    -5.1310 H       
  32 H32            0.4873     1.3124    -4.5680 H       
  33 Na33           7.9910     6.8801     7.5619 Du      
@<TRIPOS>BOND
   1    1    2 1
   2    1   21 1
   3    1   22 1
   4    1   23 1
   5    2    3 1
   6    2    6 2
   7    3    4 1
   8    3   24 1
   9    4    5 ar
  10    4    7 ar
  11    5    6 1
  12    5   10 ar
  13    6   11 1
  14    7    8 ar
  15    7   25 1
  16    8    9 ar
  17    8   26 1
  18    9   10 ar
  19    9   13 1
  20   10   27 1
  21   11   12 2
  22   11   18 1
  23   13   14 1
  24   14   15 ar
  25   14   16 ar
  26   14   17 ar
  27   18   20 1
  28   19   20 1
  29   19   28 1
  30   19   29 1
  31   19   30 1
  32   20   31 1
  33   20   32 1

#	End of record

