#	Name: ASD07931859
#	Creating user name:	WinNT
#	Creation time:	15. 06. 2019 21:13

#	Modifying user name:	WinNT
#	Modification time:	15. 06. 2019 21:13

#	Program:	/corina/corina34_cracker 3.40 0067  02.08.2006

@<TRIPOS>MOLECULE
ASD07931859
  45   46    0    0    0
SMALL
NO_CHARGES


@<TRIPOS>ATOM
   1 C1            -1.9058     0.2813     1.2501 C.3     
   2 C2            -0.4450     0.2829     0.7951 C.3     
   3 C3             0.1846     1.6422     1.1062 C.3     
   4 C4             1.6421     1.6477     0.6408 C.3     
   5 C5             2.2286     2.9764     0.8801 C.1     
   6 C6             2.6964     4.0361     1.0710 C.1     
   7 O7             0.1333     1.8798     2.5144 O.3     
   8 N8             0.2904    -0.7716     1.5060 N.3     
   9 C9            -0.1458    -0.8657     2.9056 C.3     
  10 C10            0.8709    -1.6471     3.6972 C.ar    
  11 C11            1.9275    -0.9925     4.3022 C.ar    
  12 C12            2.8601    -1.7093     5.0283 C.ar    
  13 C13            2.7360    -3.0806     5.1498 C.ar    
  14 C14            1.6789    -3.7352     4.5456 C.ar    
  15 C15            0.7438    -3.0178     3.8231 C.ar    
  16 C16            0.1492    -2.0642     0.8225 C.3     
  17 C17            0.9796    -2.0608    -0.4350 C.ar    
  18 C18            2.3261    -2.3679    -0.3750 C.ar    
  19 C19            3.0878    -2.3648    -1.5285 C.ar    
  20 C20            2.5030    -2.0550    -2.7422 C.ar    
  21 C21            1.1563    -1.7489    -2.8023 C.ar    
  22 C22            0.3937    -1.7562    -1.6494 C.ar    
  23 H23           -1.9523     0.4662     2.3233 H       
  24 H24           -2.4514     1.0637     0.7226 H       
  25 H25           -2.3543    -0.6871     1.0285 H       
  26 H26           -0.3985     0.0980    -0.2781 H       
  27 H27           -0.3661     2.4254     0.5853 H       
  28 H28            2.2039     0.8971     1.1968 H       
  29 H29            1.6844     1.4182    -0.4239 H       
  30 H30            3.1147     4.9839     1.2417 H       
  31 H31            0.7821     1.3739     3.0225 H       
  32 H32           -0.2408     0.1360     3.3247 H       
  33 H33           -1.1100    -1.3720     2.9524 H       
  34 H34            2.0245     0.0790     4.2072 H       
  35 H35            3.6860    -1.1979     5.5003 H       
  36 H36            3.4651    -3.6408     5.7165 H       
  37 H37            1.5821    -4.8067     4.6402 H       
  38 H38           -0.0841    -3.5287     3.3541 H       
  39 H39            0.4907    -2.8627     1.4813 H       
  40 H40           -0.8976    -2.2273     0.5663 H       
  41 H41            2.7831    -2.6099     0.5732 H       
  42 H42            4.1400    -2.6040    -1.4815 H       
  43 H43            3.0983    -2.0519    -3.6433 H       
  44 H44            0.6995    -1.5065    -3.7505 H       
  45 H45           -0.6593    -1.5206    -1.6969 H       
@<TRIPOS>BOND
   1    1    2 1
   2    1   23 1
   3    1   24 1
   4    1   25 1
   5    2    3 1
   6    2    8 1
   7    2   26 1
   8    3    4 1
   9    3    7 1
  10    3   27 1
  11    4    5 1
  12    4   28 1
  13    4   29 1
  14    5    6 3
  15    6   30 1
  16    7   31 1
  17    8    9 1
  18    8   16 1
  19    9   10 1
  20    9   32 1
  21    9   33 1
  22   10   11 ar
  23   10   15 ar
  24   11   12 ar
  25   11   34 1
  26   12   13 ar
  27   12   35 1
  28   13   14 ar
  29   13   36 1
  30   14   15 ar
  31   14   37 1
  32   15   38 1
  33   16   17 1
  34   16   39 1
  35   16   40 1
  36   17   18 ar
  37   17   22 ar
  38   18   19 ar
  39   18   41 1
  40   19   20 ar
  41   19   42 1
  42   20   21 ar
  43   20   43 1
  44   21   22 ar
  45   21   44 1
  46   22   45 1

#	End of record

