#	Name: ASD03731602
#	Creating user name:	WinNT
#	Creation time:	15. 06. 2019 20:46

#	Modifying user name:	WinNT
#	Modification time:	15. 06. 2019 20:46

#	Program:	/corina/corina34_cracker 3.40 0067  02.08.2006

@<TRIPOS>MOLECULE
ASD03731602
  38   39    0    0    0
SMALL
NO_CHARGES


@<TRIPOS>ATOM
   1 C1             0.0451     1.4457     0.5265 C.2     
   2 C2             0.0485    -0.0235     0.3819 C.ar    
   3 C3             1.2528    -0.7043     0.2132 C.ar    
   4 C4             1.2503    -2.0903     0.0777 C.ar    
   5 C5             0.0340    -2.7917     0.1122 C.ar    
   6 C6            -1.1601    -2.1029     0.2810 C.ar    
   7 C7            -1.1568    -0.7329     0.4202 C.ar    
   8 O8             1.0929     2.0617     0.4983 O.2     
   9 N9            -1.1200     2.1046     0.6842 N.am    
  10 S10           -1.1238     3.7526     0.8464 S.o2    
  11 O11           -2.4952     4.0851     1.0144 O.2     
  12 O12           -0.1773     4.0057     1.8756 O.2     
  13 C13           -0.5108     4.3657    -0.7470 C.3     
  14 C14            2.4831    -2.7976    -0.0966 C.1     
  15 N15            3.4612    -3.3587    -0.2349 N.1     
  16 O16            0.0255    -4.1403    -0.0195 O.3     
  17 C17           -1.1664    -4.7852     0.0931 C.ar    
  18 C18           -1.9884    -4.9310    -1.0210 C.ar    
  19 C19           -3.2015    -5.5892    -0.9017 C.ar    
  20 C20           -3.5937    -6.1000     0.3230 C.ar    
  21 C21           -2.7766    -5.9549     1.4297 C.ar    
  22 C22           -1.5624    -5.3036     1.3155 C.ar    
  23 O23           -1.6016    -4.4280    -2.2237 O.3     
  24 C24           -2.4955    -4.6148    -3.3228 C.3     
  25 Cl25          -5.1145    -6.9241     0.4711 Cl      
  26 H26            2.1846    -0.1589     0.1871 H       
  27 H27           -2.0944    -2.6440     0.3069 H       
  28 H28           -2.0885    -0.2037     0.5556 H       
  29 H29           -1.9563     1.6135     0.7027 H       
  30 H30           -1.1759     4.0337    -1.5442 H       
  31 H31           -0.4800     5.4551    -0.7296 H       
  32 H32            0.4917     3.9766    -0.9247 H       
  33 H33           -3.8412    -5.7033    -1.7644 H       
  34 H34           -3.0860    -6.3546     2.3841 H       
  35 H35           -0.9244    -5.1952     2.1801 H       
  36 H36           -2.6509    -5.6810    -3.4876 H       
  37 H37           -3.4503    -4.1387    -3.0996 H       
  38 H38           -2.0671    -4.1672    -4.2196 H       
@<TRIPOS>BOND
   1    1    2 1
   2    1    8 2
   3    1    9 am
   4    2    3 ar
   5    2    7 ar
   6    3    4 ar
   7    3   26 1
   8    4    5 ar
   9    4   14 1
  10    5    6 ar
  11    5   16 1
  12    6    7 ar
  13    6   27 1
  14    7   28 1
  15    9   10 am
  16    9   29 1
  17   10   11 2
  18   10   12 2
  19   10   13 1
  20   13   30 1
  21   13   31 1
  22   13   32 1
  23   14   15 3
  24   16   17 1
  25   17   18 ar
  26   17   22 ar
  27   18   19 ar
  28   18   23 1
  29   19   20 ar
  30   19   33 1
  31   20   21 ar
  32   20   25 1
  33   21   22 ar
  34   21   34 1
  35   22   35 1
  36   23   24 1
  37   24   36 1
  38   24   37 1
  39   24   38 1

#	End of record

