#	Name: ASD01410494
#	Creating user name:	WinNT
#	Creation time:	15. 06. 2019 19:17

#	Modifying user name:	WinNT
#	Modification time:	15. 06. 2019 19:17

#	Program:	/corina/corina34_cracker 3.40 0067  02.08.2006

@<TRIPOS>MOLECULE
ASD01410494
  68   71    0    0    0
SMALL
NO_CHARGES


@<TRIPOS>ATOM
   1 C1            -0.1794     1.3897     2.5279 C.ar    
   2 C2             0.5900     1.2280     3.6717 C.ar    
   3 C3             1.8687     0.7185     3.5594 C.ar    
   4 N4             2.3633     0.3864     2.3823 N.ar    
   5 C5             1.6610     0.5259     1.2698 C.ar    
   6 C6             0.3679     1.0316     1.3080 C.ar    
   7 O7             2.2092     0.1720     0.0804 O.3     
   8 C8             3.5069    -0.2337     0.0711 C.ar    
   9 C9             3.8508    -1.4669     0.6120 C.ar    
  10 C10            5.1649    -1.8886     0.6078 C.ar    
  11 C11            6.1540    -1.0818     0.0620 C.ar    
  12 C12            5.8131     0.1644    -0.4861 C.ar    
  13 C13            4.4793     0.5796    -0.4816 C.ar    
  14 N14            7.4805    -1.5075     0.0589 N.am    
  15 C15            7.9014    -2.3943    -0.8647 C.2     
  16 C16            8.4178    -0.9913     1.0595 C.3     
  17 O17            9.0515    -2.7884    -0.8492 O.2     
  18 C18            6.9663    -2.8870    -1.8948 C.ar    
  19 C19            5.8312    -2.1427    -2.2259 C.ar    
  20 C20            4.9618    -2.6078    -3.1884 C.ar    
  21 C21            5.2099    -3.8118    -3.8291 C.ar    
  22 C22            6.3313    -4.5557    -3.5078 C.ar    
  23 C23            7.2153    -4.0985    -2.5482 C.ar    
  24 C24            7.7080     0.0397     1.9393 C.3     
  25 C25            0.0361     1.6047     5.0216 C.3     
  26 Cl26           4.1079    -4.3891    -5.0399 Cl      
  27 C27           -0.6596     0.4140     5.6293 C.2     
  28 C28           -0.0970    -0.5084     6.4157 C.2     
  29 O29            9.8048    -2.9676     1.1661 O.3     
  30 C30            8.9209    -2.1447     1.9299 C.3     
  31 C31           10.3340    -4.0803     1.8899 C.3     
  32 O32            7.3573     1.1783     1.1503 O.3     
  33 C33            6.6855     2.2068     1.8804 C.3     
  34 S34           -2.3603    -0.0036     5.4345 S.3     
  35 C35           -2.1439    -1.3814     6.4236 C.2     
  36 N36           -0.9189    -1.4551     6.8218 N.2     
  37 F37            8.3106    -4.8247    -2.2349 F       
  38 C38            6.8560     1.0281    -1.0679 C.2     
  39 O39            7.9949     0.6180    -1.1744 O.2     
  40 O40            6.5466     2.2727    -1.4818 O.3     
  41 C41           -0.4285     1.1883     0.0383 C.3     
  42 F42           -1.6896     1.7133     0.3406 F       
  43 F43            0.2426     2.0571    -0.8289 F       
  44 F44           -0.5779    -0.0599    -0.5755 F       
  45 H45           -1.1838     1.7819     2.5888 H       
  46 H46            2.4714     0.5907     4.4464 H       
  47 H47            3.0855    -2.0986     1.0382 H       
  48 H48            5.4243    -2.8481     1.0303 H       
  49 H49            4.2092     1.5372    -0.9016 H       
  50 H50            9.2626    -0.5202     0.5570 H       
  51 H51            5.6353    -1.2045    -1.7280 H       
  52 H52            4.0841    -2.0328    -3.4442 H       
  53 H53            6.5188    -5.4929    -4.0107 H       
  54 H54            6.8052    -0.4024     2.3607 H       
  55 H55            8.3727     0.3477     2.7464 H       
  56 H56            0.8507     1.9211     5.6731 H       
  57 H57           -0.6758     2.4221     4.9070 H       
  58 H58            0.9458    -0.4805     6.6953 H       
  59 H59            9.4526    -1.7435     2.7928 H       
  60 H60            8.0733    -2.7397     2.2699 H       
  61 H61           10.9950    -4.6547     1.2408 H       
  62 H62           10.8951    -3.7193     2.7519 H       
  63 H63            9.5158    -4.7155     2.2290 H       
  64 H64            7.3289     2.5597     2.6863 H       
  65 H65            6.4537     3.0353     1.2112 H       
  66 H66            5.7615     1.8097     2.3006 H       
  67 H67           -2.9212    -2.0856     6.6812 H       
  68 H68            7.2640     2.8017    -1.8566 H       
@<TRIPOS>BOND
   1    1    2 ar
   2    1    6 ar
   3    1   45 1
   4    2    3 ar
   5    2   25 1
   6    3    4 ar
   7    3   46 1
   8    4    5 ar
   9    5    6 ar
  10    5    7 1
  11    6   41 1
  12    7    8 1
  13    8    9 ar
  14    8   13 ar
  15    9   10 ar
  16    9   47 1
  17   10   11 ar
  18   10   48 1
  19   11   12 ar
  20   11   14 1
  21   12   13 ar
  22   12   38 1
  23   13   49 1
  24   14   15 am
  25   14   16 1
  26   15   17 2
  27   15   18 1
  28   16   24 1
  29   16   30 1
  30   16   50 1
  31   18   19 ar
  32   18   23 ar
  33   19   20 ar
  34   19   51 1
  35   20   21 ar
  36   20   52 1
  37   21   22 ar
  38   21   26 1
  39   22   23 ar
  40   22   53 1
  41   23   37 1
  42   24   32 1
  43   24   54 1
  44   24   55 1
  45   25   27 1
  46   25   56 1
  47   25   57 1
  48   27   34 1
  49   27   28 2
  50   28   36 1
  51   28   58 1
  52   29   30 1
  53   29   31 1
  54   30   59 1
  55   30   60 1
  56   31   61 1
  57   31   62 1
  58   31   63 1
  59   32   33 1
  60   33   64 1
  61   33   65 1
  62   33   66 1
  63   34   35 1
  64   35   36 2
  65   35   67 1
  66   38   39 2
  67   38   40 1
  68   40   68 1
  69   41   42 1
  70   41   43 1
  71   41   44 1

#	End of record

