#	Name: ASD01913541
#	Creating user name:	WinNT
#	Creation time:	15. 06. 2019 20:01

#	Modifying user name:	WinNT
#	Modification time:	15. 06. 2019 20:01

#	Program:	/corina/corina34_cracker 3.40 0067  02.08.2006

@<TRIPOS>MOLECULE
ASD01913541
  34   36    0    0    0
SMALL
NO_CHARGES


@<TRIPOS>ATOM
   1 C1             0.6604     0.4256    -1.0389 C.ar    
   2 C2             0.0033    -0.0127     0.1063 C.ar    
   3 C3             0.5521     0.2720     1.3487 C.ar    
   4 N4             1.6794     0.9479     1.4470 N.ar    
   5 C5             2.3269     1.3775     0.3815 C.ar    
   6 C6             1.8429     1.1325    -0.8897 C.ar    
   7 C7            -1.0860    -2.0599    -0.1027 C.ar    
   8 C8             0.1374    -2.7175    -0.0103 C.ar    
   9 C9             0.1752    -4.0958    -0.1239 C.ar    
  10 N10           -0.9258    -4.7899    -0.3176 N.ar    
  11 C11           -2.1146    -4.2043    -0.4119 C.ar    
  12 C12           -2.2335    -2.8224    -0.3074 C.ar    
  13 C13           -3.3243    -5.0305    -0.6307 C.2     
  14 N14           -3.2160    -6.3700    -0.7332 N.am    
  15 O15           -1.1597    -0.7092     0.0098 O.3     
  16 C16           -4.3503    -7.1446    -0.9384 C.2     
  17 O17           -4.4145    -4.5006    -0.7178 O.2     
  18 S18           -5.9409    -6.5339    -1.0801 S.3     
  19 C19           -6.5607    -8.1687    -1.2964 C.2     
  20 C20           -5.5285    -9.0130    -1.2430 C.2     
  21 N21           -4.3565    -8.4358    -1.0559 N.2     
  22 C22           -5.6877   -10.5043    -1.3906 C.3     
  23 H23            0.2611     0.2162    -2.0202 H       
  24 H24            0.0503    -0.0635     2.2442 H       
  25 H25            3.2477     1.9286     0.5039 H       
  26 H26            2.3801     1.4878    -1.7567 H       
  27 H27            1.0474    -2.1577     0.1478 H       
  28 H28            1.1225    -4.6097    -0.0528 H       
  29 H29           -3.2007    -2.3480    -0.3840 H       
  30 H30           -2.3459    -6.7930    -0.6637 H       
  31 H31           -7.5953    -8.4402    -1.4458 H       
  32 H32           -5.6019   -10.7764    -2.4426 H       
  33 H33           -4.9096   -11.0110    -0.8197 H       
  34 H34           -6.6666   -10.8041    -1.0164 H       
@<TRIPOS>BOND
   1    1    2 ar
   2    1    6 ar
   3    1   23 1
   4    2    3 ar
   5    2   15 1
   6    3    4 ar
   7    3   24 1
   8    4    5 ar
   9    5    6 ar
  10    5   25 1
  11    6   26 1
  12    7    8 ar
  13    7   12 ar
  14    7   15 1
  15    8    9 ar
  16    8   27 1
  17    9   10 ar
  18    9   28 1
  19   10   11 ar
  20   11   12 ar
  21   11   13 1
  22   12   29 1
  23   13   14 am
  24   13   17 2
  25   14   16 1
  26   14   30 1
  27   16   18 1
  28   16   21 2
  29   18   19 1
  30   19   20 2
  31   19   31 1
  32   20   21 1
  33   20   22 1
  34   22   32 1
  35   22   33 1
  36   22   34 1

#	End of record

