#	Name: ASD01885459
#	Creating user name:	WinNT
#	Creation time:	15. 06. 2019 19:49

#	Modifying user name:	WinNT
#	Modification time:	15. 06. 2019 19:49

#	Program:	/corina/corina34_cracker 3.40 0067  02.08.2006

@<TRIPOS>MOLECULE
ASD01885459
  45   48    0    0    0
SMALL
NO_CHARGES


@<TRIPOS>ATOM
   1 C1             0.1425     1.2582     0.1251 C.ar    
   2 C2             0.2216    -0.1343     0.1444 C.ar    
   3 N3            -0.8605    -0.9521     0.1972 N.2     
   4 C4            -1.9558    -0.8072    -0.4551 C.2     
   5 C5            -2.1837     0.3674    -1.3701 C.3     
   6 C6            -2.1503     1.6245    -0.5383 C.2     
   7 N7            -1.0547     1.9617     0.1402 N.am    
   8 C8             1.3162     2.0098     0.0827 C.ar    
   9 C9             2.5532     1.3884     0.0547 C.ar    
  10 C10            2.6329    -0.0006     0.0683 C.ar    
  11 C11            1.4843    -0.7530     0.1124 C.ar    
  12 C12           -3.0184    -1.8155    -0.3047 C.ar    
  13 O13           -3.1307     2.3369    -0.4880 O.2     
  14 C14           -4.2599    -1.6243    -0.9180 C.ar    
  15 C15           -5.2506    -2.5729    -0.7729 C.ar    
  16 C16           -5.0186    -3.7117    -0.0221 C.ar    
  17 C17           -3.7913    -3.9086     0.5887 C.ar    
  18 C18           -2.7886    -2.9714     0.4474 C.ar    
  19 N19            3.7211     2.1560     0.0122 N.am    
  20 C20            4.8299     1.7318     0.6504 C.2     
  21 O21            4.7879     0.7347     1.3437 O.2     
  22 O22            5.9844     2.4130     0.5197 O.3     
  23 C23            7.0881     1.8744     1.1023 C.ar    
  24 Br24          -3.4868    -5.4689     1.6128 Br      
  25 C25            7.7155     0.7807     0.5238 C.ar    
  26 C26            8.8370     0.2351     1.1178 C.ar    
  27 C27            9.3340     0.7779     2.2883 C.ar    
  28 C28            8.7106     1.8680     2.8668 C.ar    
  29 C29            7.5924     2.4211     2.2733 C.ar    
  30 H30           -1.3975     0.4042    -2.1241 H       
  31 H31           -3.1552     0.2728    -1.8551 H       
  32 H32           -1.0967     2.7593     0.6906 H       
  33 H33            1.2599     3.0882     0.0713 H       
  34 H34            3.5969    -0.4869     0.0442 H       
  35 H35            1.5516    -1.8308     0.1230 H       
  36 H36           -4.4431    -0.7357    -1.5038 H       
  37 H37           -6.2102    -2.4262    -1.2463 H       
  38 H38           -5.7986    -4.4505     0.0884 H       
  39 H39           -1.8318    -3.1261     0.9238 H       
  40 H40            3.7334     2.9938    -0.4765 H       
  41 H41            7.3272     0.3559    -0.3901 H       
  42 H42            9.3257    -0.6164     0.6678 H       
  43 H43           10.2105     0.3496     2.7516 H       
  44 H44            9.1005     2.2901     3.7813 H       
  45 H45            7.1058     3.2726     2.7256 H       
@<TRIPOS>BOND
   1    1    2 ar
   2    1    8 ar
   3    1    7 1
   4    2    3 1
   5    2   11 ar
   6    3    4 2
   7    4    5 1
   8    4   12 1
   9    5    6 1
  10    5   30 1
  11    5   31 1
  12    6    7 am
  13    6   13 2
  14    7   32 1
  15    8    9 ar
  16    8   33 1
  17    9   10 ar
  18    9   19 1
  19   10   11 ar
  20   10   34 1
  21   11   35 1
  22   12   14 ar
  23   12   18 ar
  24   14   15 ar
  25   14   36 1
  26   15   16 ar
  27   15   37 1
  28   16   17 ar
  29   16   38 1
  30   17   18 ar
  31   17   24 1
  32   18   39 1
  33   19   20 am
  34   19   40 1
  35   20   21 2
  36   20   22 1
  37   22   23 1
  38   23   25 ar
  39   23   29 ar
  40   25   26 ar
  41   25   41 1
  42   26   27 ar
  43   26   42 1
  44   27   28 ar
  45   27   43 1
  46   28   29 ar
  47   28   44 1
  48   29   45 1

#	End of record

