#	Name: ASD04930049
#	Creating user name:	WinNT
#	Creation time:	15. 06. 2019 20:56

#	Modifying user name:	WinNT
#	Modification time:	15. 06. 2019 20:56

#	Program:	/corina/corina34_cracker 3.40 0067  02.08.2006

@<TRIPOS>MOLECULE
ASD04930049
  67   69    0    0    0
SMALL
NO_CHARGES


@<TRIPOS>ATOM
   1 C1            -0.0262     1.3976     0.0419 C.ar    
   2 C2             0.0008     0.0095     0.0083 C.ar    
   3 C3            -1.1707    -0.7158    -0.0043 C.ar    
   4 C4            -2.3977    -0.0589     0.0169 C.ar    
   5 C5            -2.4266     1.3466     0.0510 C.ar    
   6 C6            -1.2281     2.0691     0.0690 C.ar    
   7 N7            -3.5725    -0.7836     0.0039 N.am    
   8 C8            -4.7740    -0.1825     0.0236 C.2     
   9 C9            -4.8839     1.2752     0.0598 C.2     
  10 C10           -3.7172     2.0431     0.0734 C.2     
  11 O11           -3.7759     3.3907     0.1067 O.3     
  12 O12           -5.7856    -0.8611     0.0106 O.2     
  13 C13           -6.2015     1.9224     0.0811 C.2     
  14 O14           -6.8527     1.9429     1.1087 O.2     
  15 N15           -6.6898     2.4936    -1.0377 N.am    
  16 N16           -7.9905     3.0141    -1.0480 N.am    
  17 C17           -8.4789     3.5854    -2.1668 C.2     
  18 C18           -9.8779     4.1453    -2.1779 C.3     
  19 O19           -7.7923     3.6489    -3.1646 O.2     
  20 C20          -10.1818     4.7314    -3.5582 C.3     
  21 C21          -11.6022     5.2998    -3.5695 C.3     
  22 C22          -11.9060     5.8859    -4.9497 C.3     
  23 C23          -13.3265     6.4544    -4.9610 C.3     
  24 C24          -13.6303     7.0405    -6.3413 C.3     
  25 C25          -15.0507     7.6089    -6.3526 C.3     
  26 C26           -3.5075    -2.2467    -0.0327 C.3     
  27 Cl27           1.4625     2.2905     0.0571 Cl      
  28 C28           -3.4787    -2.7919     1.3965 C.3     
  29 C29           -3.5367    -4.3204     1.3606 C.3     
  30 C30           -3.5079    -4.8655     2.7899 C.3     
  31 C31           -2.2169    -4.4202     3.4797 C.3     
  32 C32           -2.1589    -2.8918     3.5156 C.3     
  33 C33           -2.1877    -2.3466     2.0863 C.3     
  34 H34            0.9494    -0.5066    -0.0086 H       
  35 H35           -1.1368    -1.7949    -0.0308 H       
  36 H36           -1.2459     3.1486     0.0956 H       
  37 H37           -4.6723     3.7471     0.0396 H       
  38 H38           -6.1408     2.5444    -1.8357 H       
  39 H39           -8.5396     2.9634    -0.2500 H       
  40 H40          -10.5894     3.3498    -1.9564 H       
  41 H41           -9.9620     4.9282    -1.4242 H       
  42 H42           -9.4703     5.5269    -3.7797 H       
  43 H43          -10.0977     3.9485    -4.3119 H       
  44 H44          -12.3137     4.5043    -3.3479 H       
  45 H45          -11.6862     6.0828    -2.8158 H       
  46 H46          -11.1945     6.6815    -5.1713 H       
  47 H47          -11.8220     5.1030    -5.7034 H       
  48 H48          -14.0379     5.6589    -4.7395 H       
  49 H49          -13.4105     7.2373    -4.2073 H       
  50 H50          -12.9188     7.8360    -6.5628 H       
  51 H51          -13.5462     6.2576    -7.0950 H       
  52 H52          -15.1348     8.3918    -5.5989 H       
  53 H53          -15.2671     8.0265    -7.3359 H       
  54 H54          -15.7622     6.8134    -6.1310 H       
  55 H55           -4.3827    -2.6363    -0.5527 H       
  56 H56           -2.6045    -2.5572    -0.5583 H       
  57 H57           -4.3367    -2.4086     1.9490 H       
  58 H58           -4.4565    -4.6376     0.8692 H       
  59 H59           -2.6788    -4.7036     0.8082 H       
  60 H60           -4.3658    -4.4823     3.3423 H       
  61 H61           -3.5492    -5.9545     2.7643 H       
  62 H62           -2.1964    -4.8086     4.4979 H       
  63 H63           -1.3589    -4.8035     2.9273 H       
  64 H64           -3.0168    -2.5085     4.0680 H       
  65 H65           -1.2391    -2.5745     4.0070 H       
  66 H66           -1.3298    -2.7298     1.5339 H       
  67 H67           -2.1464    -1.2576     2.1119 H       
@<TRIPOS>BOND
   1    1    2 ar
   2    1   27 1
   3    1    6 ar
   4    2    3 ar
   5    2   34 1
   6    3    4 ar
   7    3   35 1
   8    4    5 ar
   9    4    7 1
  10    5    6 ar
  11    5   10 1
  12    6   36 1
  13    7    8 am
  14    7   26 1
  15    8    9 1
  16    8   12 2
  17    9   10 2
  18    9   13 1
  19   10   11 1
  20   11   37 1
  21   13   14 2
  22   13   15 am
  23   15   16 1
  24   15   38 1
  25   16   17 am
  26   16   39 1
  27   17   18 1
  28   17   19 2
  29   18   20 1
  30   18   40 1
  31   18   41 1
  32   20   21 1
  33   20   42 1
  34   20   43 1
  35   21   22 1
  36   21   44 1
  37   21   45 1
  38   22   23 1
  39   22   46 1
  40   22   47 1
  41   23   24 1
  42   23   48 1
  43   23   49 1
  44   24   25 1
  45   24   50 1
  46   24   51 1
  47   25   52 1
  48   25   53 1
  49   25   54 1
  50   26   28 1
  51   26   55 1
  52   26   56 1
  53   28   29 1
  54   28   33 1
  55   28   57 1
  56   29   30 1
  57   29   58 1
  58   29   59 1
  59   30   31 1
  60   30   60 1
  61   30   61 1
  62   31   32 1
  63   31   62 1
  64   31   63 1
  65   32   33 1
  66   32   64 1
  67   32   65 1
  68   33   66 1
  69   33   67 1

#	End of record

