#	Name: ASD07301179
#	Creating user name:	WinNT
#	Creation time:	15. 06. 2019 21:11

#	Modifying user name:	WinNT
#	Modification time:	15. 06. 2019 21:11

#	Program:	/corina/corina34_cracker 3.40 0067  02.08.2006

@<TRIPOS>MOLECULE
ASD07301179
  27   27    0    0    0
SMALL
NO_CHARGES


@<TRIPOS>ATOM
   1 C1            -0.5382     0.5496     1.3000 C.3     
   2 C2             0.0024    -0.0038     0.0067 C.2     
   3 C3             1.3293    -0.6209    -0.0274 C.2     
   4 C4             1.4658    -2.0712     0.1151 C.2     
   5 C5             2.8319    -2.7066     0.0799 C.3     
   6 O6            -0.6623     0.0622    -1.0064 O.2     
   7 O7             0.4788    -2.7621     0.2614 O.2     
   8 N8             2.4057     0.1326    -0.1870 N.2     
   9 N9             2.2805     1.3960    -0.4155 N.pl3   
  10 C10            3.4079     2.1704    -0.6885 C.ar    
  11 C11            3.2750     3.5320    -0.9350 C.ar    
  12 C12            4.3935     4.2954    -1.2043 C.ar    
  13 C13            5.6450     3.7071    -1.2291 C.ar    
  14 C14            5.7812     2.3525    -0.9848 C.ar    
  15 C15            4.6680     1.5837    -0.7090 C.ar    
  16 H16            0.1545     0.3222     2.1103 H       
  17 H17           -0.6533     1.6300     1.2129 H       
  18 H18           -1.5068     0.0970     1.5122 H       
  19 H19            3.2373    -2.7525     1.0907 H       
  20 H20            2.7532    -3.7150    -0.3262 H       
  21 H21            3.4931    -2.1117    -0.5501 H       
  22 H22            1.4022     1.8075    -0.3975 H       
  23 H23            2.2981     3.9921    -0.9161 H       
  24 H24            4.2910     5.3533    -1.3963 H       
  25 H25            6.5180     4.3068    -1.4401 H       
  26 H26            6.7599     1.8965    -1.0057 H       
  27 H27            4.7756     0.5269    -0.5136 H       
@<TRIPOS>BOND
   1    1    2 1
   2    1   16 1
   3    1   17 1
   4    1   18 1
   5    2    3 1
   6    2    6 2
   7    3    4 1
   8    3    8 2
   9    4    5 1
  10    4    7 2
  11    5   19 1
  12    5   20 1
  13    5   21 1
  14    8    9 1
  15    9   10 1
  16    9   22 1
  17   10   11 ar
  18   10   15 ar
  19   11   12 ar
  20   11   23 1
  21   12   13 ar
  22   12   24 1
  23   13   14 ar
  24   13   25 1
  25   14   15 ar
  26   14   26 1
  27   15   27 1

#	End of record

