#	Name: ASD01811876
#	Creating user name:	WinNT
#	Creation time:	15. 06. 2019 19:27

#	Modifying user name:	WinNT
#	Modification time:	15. 06. 2019 19:27

#	Program:	/corina/corina34_cracker 3.40 0067  02.08.2006

@<TRIPOS>MOLECULE
ASD01811876
  60   64    0    0    0
SMALL
NO_CHARGES


@<TRIPOS>ATOM
   1 N1            -0.0158     1.3124     0.0093 N.ar    
   2 C2             0.0021    -0.0041     0.0020 C.ar    
   3 C3             1.1968    -0.7055    -0.0132 C.ar    
   4 C4             2.3959    -0.0149    -0.0209 C.ar    
   5 C5             1.1067     2.0194     0.0023 C.ar    
   6 C6             1.4022     3.4636     0.0068 C.2     
   7 C7             2.3561     1.3764    -0.0130 C.ar    
   8 N8             3.3288     2.3533    -0.0175 N.pl3   
   9 C9             2.7617     3.5823    -0.0058 C.2     
  10 C10            0.4245     4.5603     0.0214 C.2     
  11 O11           -0.7668     4.3132     0.0313 O.2     
  12 N12            0.8473     5.8400     0.0239 N.am    
  13 C13            4.7713     2.0977    -0.0324 C.3     
  14 C14            5.2309     1.8949    -1.4532 C.ar    
  15 C15            5.6481     0.4347    -3.3046 C.ar    
  16 C16            5.2282     0.6261    -2.0038 C.ar    
  17 C17            5.6486     2.9791    -2.2037 C.ar    
  18 C18            6.0701     2.7992    -3.5056 C.ar    
  19 C19            6.0748     1.5225    -4.0634 C.ar    
  20 C20            6.5280     1.3227    -5.4625 C.2     
  21 N21            6.5756     0.1747    -6.1046 N.2     
  22 N22            7.0589     0.4182    -7.3965 N.pl3   
  23 C23            7.3000     1.7419    -7.5127 C.2     
  24 C24            6.9772     2.3290    -6.3397 C.2     
  25 C25           -0.1275     6.9335     0.0384 C.3     
  26 O26           -0.8662     9.5479     0.8952 O.3     
  27 C27           -0.4923     9.3498    -0.4697 C.3     
  28 C28            0.5060     8.1927    -0.5611 C.3     
  29 C29           -0.5489     7.2251     1.4820 C.3     
  30 C30           -1.5064     8.4195     1.4944 C.3     
  31 O31            0.8373     7.9549    -1.9307 O.3     
  32 C32            7.2676    -0.5884    -8.4402 C.3     
  33 C33            1.1905    -2.2125    -0.0207 C.3     
  34 H34           -0.9315    -0.5470     0.0084 H       
  35 H35            3.3386    -0.5419    -0.0324 H       
  36 H36            3.3036     4.5165    -0.0066 H       
  37 H37            1.7971     6.0370     0.0160 H       
  38 H38            5.2957     2.9493     0.4011 H       
  39 H39            4.9877     1.2026     0.5508 H       
  40 H40            5.6459    -0.5565    -3.7335 H       
  41 H41            4.8972    -0.2164    -1.4148 H       
  42 H42            5.6446     3.9684    -1.7703 H       
  43 H43            6.3954     3.6465    -4.0909 H       
  44 H44            7.6795     2.2435    -8.3906 H       
  45 H45            7.0525     3.3824    -6.1138 H       
  46 H46           -1.0023     6.6500    -0.5466 H       
  47 H47           -1.3783     9.1128    -1.0587 H       
  48 H48           -0.0314    10.2589    -0.8560 H       
  49 H49            1.4090     8.4460    -0.0057 H       
  50 H50           -1.0507     6.3517     1.8984 H       
  51 H51            0.3328     7.4588     2.0787 H       
  52 H52           -1.7761     8.6585     2.5231 H       
  53 H53           -2.4058     8.1704     0.9312 H       
  54 H54            1.2391     8.7136    -2.3756 H       
  55 H55            6.3579    -0.6925    -9.0317 H       
  56 H56            8.0878    -0.2767    -9.0869 H       
  57 H57            7.5122    -1.5451    -7.9786 H       
  58 H58            1.1790    -2.5706    -1.0501 H       
  59 H59            2.0839    -2.5821     0.4826 H       
  60 H60            0.3041    -2.5747     0.5000 H       
@<TRIPOS>BOND
   1    1    2 ar
   2    1    5 ar
   3    2    3 ar
   4    2   34 1
   5    3    4 ar
   6    3   33 1
   7    4    7 ar
   8    4   35 1
   9    5    7 ar
  10    5    6 1
  11    6    9 2
  12    6   10 1
  13    7    8 1
  14    8    9 1
  15    8   13 1
  16    9   36 1
  17   10   11 2
  18   10   12 am
  19   12   25 1
  20   12   37 1
  21   13   14 1
  22   13   38 1
  23   13   39 1
  24   14   17 ar
  25   14   16 ar
  26   15   16 ar
  27   15   19 ar
  28   15   40 1
  29   16   41 1
  30   17   18 ar
  31   17   42 1
  32   18   19 ar
  33   18   43 1
  34   19   20 1
  35   20   21 2
  36   20   24 1
  37   21   22 1
  38   22   23 1
  39   22   32 1
  40   23   24 2
  41   23   44 1
  42   24   45 1
  43   25   29 1
  44   25   28 1
  45   25   46 1
  46   26   27 1
  47   26   30 1
  48   27   28 1
  49   27   47 1
  50   27   48 1
  51   28   31 1
  52   28   49 1
  53   29   30 1
  54   29   50 1
  55   29   51 1
  56   30   52 1
  57   30   53 1
  58   31   54 1
  59   32   55 1
  60   32   56 1
  61   32   57 1
  62   33   58 1
  63   33   59 1
  64   33   60 1

#	End of record

