#	Name: ASD01884509
#	Creating user name:	WinNT
#	Creation time:	15. 06. 2019 19:48

#	Modifying user name:	WinNT
#	Modification time:	15. 06. 2019 19:48

#	Program:	/corina/corina34_cracker 3.40 0067  02.08.2006

@<TRIPOS>MOLECULE
ASD01884509
  39   41    0    0    0
SMALL
NO_CHARGES


@<TRIPOS>ATOM
   1 C1            -0.0164     1.3598     0.0095 C.2     
   2 C2             0.0021    -0.0041     0.0020 C.2     
   3 C3             1.2342    -0.6727    -0.0133 C.2     
   4 C4             2.3874     0.0358    -0.0205 C.2     
   5 N5             2.3670     1.3933    -0.0126 N.am    
   6 C6             1.1996     2.0643     0.0017 C.2     
   7 C7             3.6294     2.1366    -0.0197 C.3     
   8 O8             1.1975     3.2849     0.0083 O.2     
   9 C9             4.0495     2.3996    -1.4429 C.ar    
  10 C10            3.6347     3.5519    -2.0840 C.ar    
  11 C11            4.0197     3.7936    -3.3893 C.ar    
  12 C12            4.8204     2.8821    -4.0542 C.ar    
  13 C13            5.2352     1.7290    -3.4120 C.ar    
  14 C14            4.8542     1.4911    -2.1048 C.ar    
  15 Cl15           5.3039     3.1847    -5.6938 Cl      
  16 C16            1.2747    -2.1791    -0.0213 C.3     
  17 C17            0.7005    -2.7039     1.2694 C.ar    
  18 O18            0.5043    -2.6705    -1.1200 O.3     
  19 C19            1.5400    -3.0157     2.3225 C.ar    
  20 C20            1.0145    -3.4966     3.5068 C.ar    
  21 C21           -0.3533    -3.6660     3.6383 C.ar    
  22 C22           -1.1932    -3.3534     2.5828 C.ar    
  23 C23           -0.6659    -2.8677     1.4014 C.ar    
  24 F24           -0.8681    -4.1365     4.7954 F       
  25 H25           -0.9557     1.8927     0.0169 H       
  26 H26           -0.9222    -0.5627     0.0082 H       
  27 H27            3.3339    -0.4842    -0.0324 H       
  28 H28            3.4957     3.0849     0.5008 H       
  29 H29            4.3986     1.5511     0.4839 H       
  30 H30            3.0094     4.2633    -1.5650 H       
  31 H31            3.6953     4.6938    -3.8902 H       
  32 H32            5.8603     1.0170    -3.9305 H       
  33 H33            5.1780     0.5910    -1.6034 H       
  34 H34            2.3069    -2.5143    -0.1226 H       
  35 H35           -0.4267    -2.4102    -1.0952 H       
  36 H36            2.6070    -2.8838     2.2196 H       
  37 H37            1.6706    -3.7404     4.3293 H       
  38 H38           -2.2603    -3.4852     2.6843 H       
  39 H39           -1.3208    -2.6238     0.5779 H       
@<TRIPOS>BOND
   1    1    2 2
   2    1    6 1
   3    1   25 1
   4    2    3 1
   5    2   26 1
   6    3    4 2
   7    3   16 1
   8    4    5 1
   9    4   27 1
  10    5    6 am
  11    5    7 1
  12    6    8 2
  13    7    9 1
  14    7   28 1
  15    7   29 1
  16    9   10 ar
  17    9   14 ar
  18   10   11 ar
  19   10   30 1
  20   11   12 ar
  21   11   31 1
  22   12   13 ar
  23   12   15 1
  24   13   14 ar
  25   13   32 1
  26   14   33 1
  27   16   17 1
  28   16   18 1
  29   16   34 1
  30   17   19 ar
  31   17   23 ar
  32   18   35 1
  33   19   20 ar
  34   19   36 1
  35   20   21 ar
  36   20   37 1
  37   21   22 ar
  38   21   24 1
  39   22   23 ar
  40   22   38 1
  41   23   39 1

#	End of record

