#	Name: ASD01028122
#	Creating user name:	WinNT
#	Creation time:	15. 06. 2019 18:56

#	Modifying user name:	WinNT
#	Modification time:	15. 06. 2019 18:56

#	Program:	/corina/corina34_cracker 3.40 0067  02.08.2006

@<TRIPOS>MOLECULE
ASD01028122
  37   38    0    0    0
SMALL
NO_CHARGES


@<TRIPOS>ATOM
   1 N1            -0.3237     1.8693     1.0684 N.pl3   
   2 C2            -0.4578     0.4857     1.2327 C.ar    
   3 C3             0.6077    -0.3552     0.9423 C.ar    
   4 C4             1.9098     0.2221     0.4499 C.3     
   5 C5            -1.6574    -0.0482     1.6928 C.ar    
   6 C6            -1.7850    -1.4230     1.8542 C.ar    
   7 C7            -0.7163    -2.2558     1.5560 C.ar    
   8 C8             0.4757    -1.7215     1.1049 C.ar    
   9 O9            -2.8352     0.5453     2.0491 O.3     
  10 C10           -3.8147    -0.5102     2.0408 C.3     
  11 O11           -3.0421    -1.6945     2.3123 O.3     
  12 N12            2.6328     0.8295     1.5751 N.3     
  13 C13            2.9897    -0.1818     2.5790 C.3     
  14 C14            3.8243     1.5505     1.1076 C.3     
  15 C15            4.6047     0.6672     0.1319 C.3     
  16 C16            3.4029     2.8183     0.4105 C.2     
  17 O17            4.2340     3.8717     0.3730 O.3     
  18 O18            2.3169     2.8867    -0.1147 O.2     
  19 C19            3.7620     5.0597    -0.3155 C.3     
  20 H20            0.5397     2.2494     0.8427 H       
  21 H21           -1.0950     2.4475     1.1763 H       
  22 H22            2.5169    -0.5711     0.0136 H       
  23 H23            1.7079     0.9820    -0.3050 H       
  24 H24           -0.8145    -3.3240     1.6814 H       
  25 H25            1.3048    -2.3738     0.8736 H       
  26 H26           -4.5574    -0.3498     2.8223 H       
  27 H27           -4.2936    -0.5807     1.0642 H       
  28 H28            3.5981    -0.9571     2.1134 H       
  29 H29            3.5542     0.2887     3.3840 H       
  30 H30            2.0813    -0.6275     2.9846 H       
  31 H31            4.4572     1.7976     1.9599 H       
  32 H32            5.4888     1.2022    -0.2150 H       
  33 H33            4.9095    -0.2498     0.6361 H       
  34 H34            3.9718     0.4201    -0.7204 H       
  35 H35            4.5282     5.8337    -0.2717 H       
  36 H36            3.5506     4.8163    -1.3568 H       
  37 H37            2.8527     5.4210     0.1649 H       
@<TRIPOS>BOND
   1    1    2 1
   2    1   20 1
   3    1   21 1
   4    2    3 ar
   5    2    5 ar
   6    3    4 1
   7    3    8 ar
   8    4   12 1
   9    4   22 1
  10    4   23 1
  11    5    6 ar
  12    5    9 1
  13    6    7 ar
  14    6   11 1
  15    7    8 ar
  16    7   24 1
  17    8   25 1
  18    9   10 1
  19   10   11 1
  20   10   26 1
  21   10   27 1
  22   12   13 1
  23   12   14 1
  24   13   28 1
  25   13   29 1
  26   13   30 1
  27   14   15 1
  28   14   16 1
  29   14   31 1
  30   15   32 1
  31   15   33 1
  32   15   34 1
  33   16   17 1
  34   16   18 2
  35   17   19 1
  36   19   35 1
  37   19   36 1
  38   19   37 1

#	End of record

