#	Name: ASD01420689
#	Creating user name:	WinNT
#	Creation time:	15. 06. 2019 19:20

#	Modifying user name:	WinNT
#	Modification time:	15. 06. 2019 19:20

#	Program:	/corina/corina34_cracker 3.40 0067  02.08.2006

@<TRIPOS>MOLECULE
ASD01420689
  52   54    0    0    0
SMALL
NO_CHARGES


@<TRIPOS>ATOM
   1 C1            -0.0173     1.4248     0.0099 C.3     
   2 C2             1.4181     1.9544    -0.0010 C.3     
   3 C3             2.1942     1.3483     1.1700 C.3     
   4 C4             3.5901     1.9713     1.2337 C.3     
   5 O5             0.0021    -0.0041     0.0020 O.3     
   6 N6             2.0663     1.5825    -1.2611 N.pl3   
   7 N7             1.6224     4.4811    -5.7952 N.2     
   8 C8             2.3561     3.7473    -6.5798 C.2     
   9 N9             2.8405     2.6721    -5.8935 N.pl3   
  10 C10            2.3699     2.7590    -4.6077 C.ar    
  11 N11            2.5009     2.0208    -3.5102 N.ar    
  12 C12            1.9054     2.3777    -2.3838 C.ar    
  13 N13            1.1591     3.4710    -2.2928 N.ar    
  14 C14            0.9747     4.2657    -3.3412 C.ar    
  15 C15            1.5890     3.9256    -4.5588 C.ar    
  16 N16            0.1943     5.4035    -3.2369 N.pl3   
  17 C17           -0.4391     5.7428    -1.9603 C.3     
  18 C18           -1.2269     7.0183    -2.1137 C.ar    
  19 C19           -2.5547     6.9689    -2.4950 C.ar    
  20 C20           -3.2774     8.1389    -2.6358 C.ar    
  21 C21           -2.6723     9.3582    -2.3949 C.ar    
  22 C22           -1.3448     9.4076    -2.0128 C.ar    
  23 C23           -0.6233     8.2373    -1.8677 C.ar    
  24 C24            3.7041     1.6179    -6.4312 C.3     
  25 C25            2.9903     0.9139    -7.5870 C.3     
  26 C26            5.0085     2.2362    -6.9382 C.3     
  27 H27           -0.5275     1.7763     0.9067 H       
  28 H28           -0.5445     1.7859    -0.8732 H       
  29 H29            1.4055     3.0401     0.0945 H       
  30 H30            1.6636     1.5498     2.1006 H       
  31 H31            2.2831     0.2712     1.0284 H       
  32 H32            4.1207     1.7699     0.3031 H       
  33 H33            3.5012     3.0484     1.3753 H       
  34 H34            4.1430     1.5396     2.0679 H       
  35 H35           -0.8759    -0.4094     0.0082 H       
  36 H36            2.6081     0.7794    -1.3092 H       
  37 H37            2.5523     3.9578    -7.6207 H       
  38 H38            0.0666     5.9764    -4.0091 H       
  39 H39           -1.1083     4.9362    -1.6609 H       
  40 H40            0.3287     5.8794    -1.1987 H       
  41 H41           -3.0274     6.0162    -2.6832 H       
  42 H42           -4.3146     8.1003    -2.9343 H       
  43 H43           -3.2367    10.2723    -2.5056 H       
  44 H44           -0.8720    10.3602    -1.8249 H       
  45 H45            0.4128     8.2757    -1.5656 H       
  46 H46            3.9258     0.8945    -5.6466 H       
  47 H47            2.7686     1.6374    -8.3716 H       
  48 H48            3.6328     0.1296    -7.9870 H       
  49 H49            2.0610     0.4734    -7.2257 H       
  50 H50            5.5170     2.7377    -6.1148 H       
  51 H51            5.6510     1.4518    -7.3382 H       
  52 H52            4.7868     2.9596    -7.7228 H       
@<TRIPOS>BOND
   1    1    5 1
   2    1    2 1
   3    1   27 1
   4    1   28 1
   5    2    3 1
   6    2    6 1
   7    2   29 1
   8    3    4 1
   9    3   30 1
  10    3   31 1
  11    4   32 1
  12    4   33 1
  13    4   34 1
  14    5   35 1
  15    6   12 1
  16    6   36 1
  17    7    8 2
  18    7   15 1
  19    8    9 1
  20    8   37 1
  21    9   10 1
  22    9   24 1
  23   10   11 ar
  24   10   15 ar
  25   11   12 ar
  26   12   13 ar
  27   13   14 ar
  28   14   15 ar
  29   14   16 1
  30   16   17 1
  31   16   38 1
  32   17   18 1
  33   17   39 1
  34   17   40 1
  35   18   19 ar
  36   18   23 ar
  37   19   20 ar
  38   19   41 1
  39   20   21 ar
  40   20   42 1
  41   21   22 ar
  42   21   43 1
  43   22   23 ar
  44   22   44 1
  45   23   45 1
  46   24   25 1
  47   24   26 1
  48   24   46 1
  49   25   47 1
  50   25   48 1
  51   25   49 1
  52   26   50 1
  53   26   51 1
  54   26   52 1

#	End of record

