#	Name: ASD03331381
#	Creating user name:	WinNT
#	Creation time:	15. 06. 2019 20:39

#	Modifying user name:	WinNT
#	Modification time:	15. 06. 2019 20:39

#	Program:	/corina/corina34_cracker 3.40 0067  02.08.2006

@<TRIPOS>MOLECULE
ASD03331381
  61   63    0    0    0
SMALL
NO_CHARGES


@<TRIPOS>ATOM
   1 C1            -0.0143     1.2041     0.0087 C.2     
   2 C2            -1.3295     1.9397     0.0189 C.3     
   3 C3            -1.4165     2.8114     1.2733 C.3     
   4 C4            -0.2672     3.8213     1.2734 C.3     
   5 O5             0.0021    -0.0041     0.0020 O.2     
   6 O6             1.1389     1.8910     0.0013 O.3     
   7 C7            -2.7518     3.5583     1.2837 C.3     
   8 C8            -1.3176     1.9262     2.5173 C.3     
   9 C9            -3.6368     1.3252    -0.4668 C.2     
  10 O10           -3.8120     2.4449    -0.9046 O.2     
  11 N11           -2.4300     0.9727     0.0189 N.am    
  12 N12           -4.5896    -0.8852     0.0057 N.2     
  13 N13           -4.6492     0.4355    -0.4668 N.am    
  14 C14           -5.9043     0.6562    -0.9223 C.2     
  15 C15           -6.6196    -0.4818    -0.7448 C.2     
  16 C16           -5.7746    -1.4376    -0.1615 C.2     
  17 C17           -8.0708    -0.6122    -1.1341 C.3     
  18 C18           -6.4903     1.9053    -1.5333 C.3     
  19 C19           -7.8010     1.5133    -2.2313 C.3     
  20 O20           -8.5904     0.7064    -1.3536 O.3     
  21 C21           -6.1489    -2.8264     0.2028 C.ar    
  22 C22           -5.2187    -3.8566     0.0768 C.ar    
  23 C23           -5.5716    -5.1480     0.4177 C.ar    
  24 C24           -6.8502    -5.4187     0.8847 C.ar    
  25 C25           -7.7760    -4.3969     1.0107 C.ar    
  26 C26           -7.4293    -3.1031     0.6771 C.ar    
  27 F27           -7.1925    -6.6827     1.2168 F       
  28 F28           -4.6716    -6.1481     0.2959 F       
  29 C29            2.3672     1.1168    -0.0145 C.3     
  30 C30            2.4021     0.2414    -1.2689 C.3     
  31 C31            3.5677     2.0652    -0.0209 C.3     
  32 C32            2.4260     0.2280     1.2294 C.3     
  33 H33           -1.4000     2.5704    -0.8673 H       
  34 H34           -0.3377     4.4520     0.3871 H       
  35 H35           -0.3292     4.4423     2.1670 H       
  36 H36            0.6840     3.2892     1.2660 H       
  37 H37           -3.5706     2.8388     1.2837 H       
  38 H38           -2.8138     4.1793     2.1774 H       
  39 H39           -2.8223     4.1889     0.3975 H       
  40 H40           -0.3664     1.3940     2.5099 H       
  41 H41           -1.3797     2.5471     3.4110 H       
  42 H42           -2.1364     1.2067     2.5173 H       
  43 H43           -2.2901     0.0787     0.3684 H       
  44 H44           -8.1557    -1.1988    -2.0489 H       
  45 H45           -8.6255    -1.0979    -0.3313 H       
  46 H46           -6.6925     2.6386    -0.7526 H       
  47 H47           -5.7943     2.3220    -2.2613 H       
  48 H48           -8.3559     2.4140    -2.4936 H       
  49 H49           -7.5754     0.9501    -3.1369 H       
  50 H50           -4.2239    -3.6457    -0.2870 H       
  51 H51           -8.7699    -4.6118     1.3745 H       
  52 H52           -8.1514    -2.3066     0.7799 H       
  53 H53            2.3602     0.8746    -2.1551 H       
  54 H54            3.3242    -0.3397    -1.2808 H       
  55 H55            1.5468    -0.4343    -1.2644 H       
  56 H56            3.5429     2.6889     0.8727 H       
  57 H57            4.4898     1.4841    -0.0328 H       
  58 H58            3.5259     2.6984    -0.9072 H       
  59 H59            1.5707    -0.4477     1.2340 H       
  60 H60            3.3481    -0.3531     1.2175 H       
  61 H61            2.4011     0.8516     2.1231 H       
@<TRIPOS>BOND
   1    1    5 2
   2    1    6 1
   3    1    2 1
   4    2    3 1
   5    2   11 1
   6    2   33 1
   7    3    4 1
   8    3    7 1
   9    3    8 1
  10    4   34 1
  11    4   35 1
  12    4   36 1
  13    6   29 1
  14    7   37 1
  15    7   38 1
  16    7   39 1
  17    8   40 1
  18    8   41 1
  19    8   42 1
  20    9   10 2
  21    9   11 am
  22    9   13 am
  23   11   43 1
  24   12   13 1
  25   12   16 2
  26   13   14 1
  27   14   15 2
  28   14   18 1
  29   15   16 1
  30   15   17 1
  31   16   21 1
  32   17   20 1
  33   17   44 1
  34   17   45 1
  35   18   19 1
  36   18   46 1
  37   18   47 1
  38   19   20 1
  39   19   48 1
  40   19   49 1
  41   21   22 ar
  42   21   26 ar
  43   22   23 ar
  44   22   50 1
  45   23   24 ar
  46   23   28 1
  47   24   25 ar
  48   24   27 1
  49   25   26 ar
  50   25   51 1
  51   26   52 1
  52   29   30 1
  53   29   32 1
  54   29   31 1
  55   30   53 1
  56   30   54 1
  57   30   55 1
  58   31   56 1
  59   31   57 1
  60   31   58 1
  61   32   59 1
  62   32   60 1
  63   32   61 1

#	End of record

