#	Name: ASD04590691
#	Creating user name:	WinNT
#	Creation time:	15. 06. 2019 20:51

#	Modifying user name:	WinNT
#	Modification time:	15. 06. 2019 20:51

#	Program:	/corina/corina34_cracker 3.40 0067  02.08.2006

@<TRIPOS>MOLECULE
ASD04590691
  56   61    0    0    0
SMALL
NO_CHARGES


@<TRIPOS>ATOM
   1 N1            -0.0171     1.3233    -0.0119 N.ar    
   2 C2             0.0017    -0.0035    -0.0051 C.ar    
   3 N3             1.1298    -0.6949    -0.0118 N.ar    
   4 C4             2.3050    -0.0727    -0.0262 C.ar    
   5 C5             2.3189     1.3367    -0.0341 C.ar    
   6 C6             1.1071     2.0203    -0.0261 C.ar    
   7 N7             3.6029    -0.5189    -0.0358 N.pl3   
   8 C8             4.4817     0.5514    -0.0499 C.ar    
   9 C9             3.7311     1.7389    -0.0495 C.ar    
  10 N10           -1.2020    -0.6888     0.0098 N.pl3   
  11 C11           -2.4019     0.0119     0.1303 C.ar    
  12 C12            4.0024    -1.9284    -0.0309 C.3     
  13 C13            3.4620    -2.6250     1.2302 C.3     
  14 C14            5.8705     0.6466    -0.0633 C.ar    
  15 N15            6.4581     1.8276    -0.0753 N.ar    
  16 C16            5.7743     2.9591    -0.0752 C.ar    
  17 C17            4.4066     2.9601    -0.0621 C.ar    
  18 C18            2.5296    -3.7540     0.7447 C.3     
  19 C19            3.0220    -4.0624    -0.6911 C.3     
  20 C20            3.3794    -2.6583    -1.2388 C.3     
  21 N21           -2.3784     1.3196     0.3309 N.ar    
  22 C22           -3.4885     2.0230     0.4504 C.ar    
  23 C23           -4.7292     1.4088     0.3690 C.ar    
  24 C24           -4.7936     0.0322     0.1583 C.ar    
  25 C25           -3.6094    -0.6709     0.0326 C.ar    
  26 N26           -5.9024     2.1618     0.4972 N.3     
  27 F27            6.6208    -0.4769    -0.0636 F       
  28 C28           -6.7122     1.6906     1.6416 C.3     
  29 C29           -8.1914     1.8677     1.2517 C.3     
  30 C30           -8.1648     2.4347    -0.1863 C.3     
  31 C31           -6.7669     2.0085    -0.7009 C.3     
  32 O32           -9.1969     1.8468    -0.9808 O.3     
  33 H33            1.0847     3.1001    -0.0322 H       
  34 H34           -1.2104    -1.6560    -0.0635 H       
  35 H35            5.0889    -2.0084    -0.0652 H       
  36 H36            4.2863    -3.0439     1.8075 H       
  37 H37            2.9026    -1.9144     1.8386 H       
  38 H38            6.3051     3.8995    -0.0853 H       
  39 H39            3.8584     3.8906    -0.0621 H       
  40 H40            2.6323    -4.6335     1.3804 H       
  41 H41            1.4944    -3.4131     0.7280 H       
  42 H42            3.9031    -4.7037    -0.6679 H       
  43 H43            2.2274    -4.5170    -1.2827 H       
  44 H44            2.4814    -2.1404    -1.5758 H       
  45 H45            4.1023    -2.7382    -2.0506 H       
  46 H46           -3.4302     3.0889     0.6138 H       
  47 H47           -5.7459    -0.4726     0.0910 H       
  48 H48           -3.6221    -1.7383    -0.1316 H       
  49 H49           -6.5030     0.6387     1.8364 H       
  50 H50           -6.4873     2.2866     2.5261 H       
  51 H51           -8.7052     0.9066     1.2700 H       
  52 H52           -8.6789     2.5711     1.9267 H       
  53 H53           -8.2569     3.5207    -0.1745 H       
  54 H54           -6.4343     2.6684    -1.5022 H       
  55 H55           -6.7799     0.9713    -1.0357 H       
  56 H56          -10.0907     2.0192    -0.6545 H       
@<TRIPOS>BOND
   1    1    2 ar
   2    1    6 ar
   3    2    3 ar
   4    2   10 1
   5    3    4 ar
   6    4    5 ar
   7    4    7 1
   8    5    6 ar
   9    5    9 1
  10    6   33 1
  11    7    8 1
  12    7   12 1
  13    8    9 ar
  14    8   14 ar
  15    9   17 ar
  16   10   11 1
  17   10   34 1
  18   11   21 ar
  19   11   25 ar
  20   12   13 1
  21   12   20 1
  22   12   35 1
  23   13   18 1
  24   13   36 1
  25   13   37 1
  26   14   15 ar
  27   14   27 1
  28   15   16 ar
  29   16   17 ar
  30   16   38 1
  31   17   39 1
  32   18   19 1
  33   18   40 1
  34   18   41 1
  35   19   20 1
  36   19   42 1
  37   19   43 1
  38   20   44 1
  39   20   45 1
  40   21   22 ar
  41   22   23 ar
  42   22   46 1
  43   23   24 ar
  44   23   26 1
  45   24   25 ar
  46   24   47 1
  47   25   48 1
  48   26   28 1
  49   26   31 1
  50   28   29 1
  51   28   49 1
  52   28   50 1
  53   29   30 1
  54   29   51 1
  55   29   52 1
  56   30   31 1
  57   30   32 1
  58   30   53 1
  59   31   54 1
  60   31   55 1
  61   32   56 1

#	End of record

