#	Name: ASD05430625
#	Creating user name:	WinNT
#	Creation time:	15. 06. 2019 21:00

#	Modifying user name:	WinNT
#	Modification time:	15. 06. 2019 21:00

#	Program:	/corina/corina34_cracker 3.40 0067  02.08.2006

@<TRIPOS>MOLECULE
ASD05430625
  37   39    0    0    0
SMALL
NO_CHARGES


@<TRIPOS>ATOM
   1 C1             0.0375     1.3240     0.0751 C.ar    
   2 C2             0.0328    -0.0621    -0.1443 C.ar    
   3 C3             1.2184    -0.7286    -0.3826 C.ar    
   4 C4             2.4169    -0.0302    -0.4058 C.ar    
   5 C5             2.4409     1.3144    -0.1947 C.ar    
   6 C6             1.2451     2.0247     0.0513 C.ar    
   7 C7             3.7549     2.0516    -0.2241 C.3     
   8 C8             4.5810     1.6709     1.0062 C.3     
   9 C9             4.5237     1.6733    -1.4917 C.3     
  10 N10           -1.1772    -0.7712    -0.1210 N.pl3   
  11 C11           -2.1283    -0.7134     0.8468 C.2     
  12 C12           -1.6258    -1.6487    -1.0737 C.2     
  13 C13           -2.8245    -2.0988    -0.6560 C.2     
  14 N14           -3.1063    -1.5125     0.5168 N.2     
  15 C15           -3.7000    -3.0866    -1.3832 C.3     
  16 C16            1.0516     3.4443     0.2990 C.2     
  17 C17           -0.2003     3.8077     0.4958 C.2     
  18 S18           -1.2875     2.4364     0.3924 S.3     
  19 C19            2.1951     4.4255     0.3289 C.3     
  20 H20            1.2128    -1.7954    -0.5508 H       
  21 H21            3.3401    -0.5586    -0.5928 H       
  22 H22            3.5691     3.1257    -0.2188 H       
  23 H23            5.5314     2.2042     0.9849 H       
  24 H24            4.0333     1.9404     1.9092 H       
  25 H25            4.7668     0.5969     1.0009 H       
  26 H26            3.9352     1.9445    -2.3681 H       
  27 H27            5.4741     2.2065    -1.5130 H       
  28 H28            4.7095     0.5993    -1.4969 H       
  29 H29           -2.0829    -0.1078     1.7399 H       
  30 H30           -1.1161    -1.9258    -1.9846 H       
  31 H31           -3.4486    -4.0982    -1.0647 H       
  32 H32           -4.7459    -2.8828    -1.1538 H       
  33 H33           -3.5388    -2.9931    -2.4572 H       
  34 H34           -0.5162     4.8216     0.6924 H       
  35 H35            2.4782     4.6847    -0.6913 H       
  36 H36            1.8874     5.3259     0.8605 H       
  37 H37            3.0467     3.9755     0.8390 H       
@<TRIPOS>BOND
   1    1    2 ar
   2    1    6 ar
   3    1   18 1
   4    2    3 ar
   5    2   10 1
   6    3    4 ar
   7    3   20 1
   8    4    5 ar
   9    4   21 1
  10    5    6 ar
  11    5    7 1
  12    6   16 1
  13    7    8 1
  14    7    9 1
  15    7   22 1
  16    8   23 1
  17    8   24 1
  18    8   25 1
  19    9   26 1
  20    9   27 1
  21    9   28 1
  22   10   11 1
  23   10   12 1
  24   11   14 2
  25   11   29 1
  26   12   13 2
  27   12   30 1
  28   13   14 1
  29   13   15 1
  30   15   31 1
  31   15   32 1
  32   15   33 1
  33   16   17 2
  34   16   19 1
  35   17   18 1
  36   17   34 1
  37   19   35 1
  38   19   36 1
  39   19   37 1

#	End of record

