#	Name: ASD01151032
#	Creating user name:	WinNT
#	Creation time:	15. 06. 2019 19:05

#	Modifying user name:	WinNT
#	Modification time:	15. 06. 2019 19:05

#	Program:	/corina/corina34_cracker 3.40 0067  02.08.2006

@<TRIPOS>MOLECULE
ASD01151032
  26   26    0    0    0
SMALL
NO_CHARGES


@<TRIPOS>ATOM
   1 C1            -0.0457     1.5059     0.0270 C.3     
   2 C2            -0.0150    -0.0007     0.0143 C.2     
   3 C3             1.1462    -0.5656     0.0087 C.2     
   4 C4             1.3623    -2.0529    -0.0276 C.3     
   5 C5             0.0362    -2.7450     0.2044 C.2     
   6 C6            -0.0605    -3.8066     0.9658 C.2     
   7 C7             1.1826    -4.4444     1.5307 C.3     
   8 C8            -1.4147    -4.3902     1.2767 C.3     
   9 C9            -1.1753    -2.1494    -0.4870 C.3     
  10 C10           -1.3338    -0.7100     0.0152 C.3     
  11 H11            0.9744     1.8901     0.0295 H       
  12 H12           -0.5674     1.8662    -0.8596 H       
  13 H13           -0.5662     1.8512     0.9203 H       
  14 H14            2.0181     0.0714     0.0312 H       
  15 H15            1.7591    -2.3407    -1.0011 H       
  16 H16            2.0654    -2.3390     0.7546 H       
  17 H17            1.4136    -3.9965     2.4972 H       
  18 H18            1.0169    -5.5144     1.6564 H       
  19 H19            2.0162    -4.2837     0.8471 H       
  20 H20           -1.9387    -4.6082     0.3461 H       
  21 H21           -1.2914    -5.3100     1.8483 H       
  22 H22           -1.9934    -3.6744     1.8605 H       
  23 H23           -1.0238    -2.1532    -1.5664 H       
  24 H24           -2.0650    -2.7269    -0.2360 H       
  25 H25           -1.7386    -0.7257     1.0271 H       
  26 H26           -2.0239    -0.1762    -0.6381 H       
@<TRIPOS>BOND
   1    1    2 1
   2    1   11 1
   3    1   12 1
   4    1   13 1
   5    2    3 2
   6    2   10 1
   7    3    4 1
   8    3   14 1
   9    4    5 1
  10    4   15 1
  11    4   16 1
  12    5    6 2
  13    5    9 1
  14    6    7 1
  15    6    8 1
  16    7   17 1
  17    7   18 1
  18    7   19 1
  19    8   20 1
  20    8   21 1
  21    8   22 1
  22    9   10 1
  23    9   23 1
  24    9   24 1
  25   10   25 1
  26   10   26 1

#	End of record

