#	Name: ASD05250043
#	Creating user name:	WinNT
#	Creation time:	15. 06. 2019 20:58

#	Modifying user name:	WinNT
#	Modification time:	15. 06. 2019 20:58

#	Program:	/corina/corina34_cracker 3.40 0067  02.08.2006

@<TRIPOS>MOLECULE
ASD05250043
  44   46    0    0    0
SMALL
NO_CHARGES


@<TRIPOS>ATOM
   1 O1            -0.0173     1.4248     0.0099 O.3     
   2 C2             0.0021    -0.0041     0.0020 C.3     
   3 C3             0.7421    -0.5109     1.2415 C.3     
   4 O4             0.7614    -1.9398     1.2337 O.3     
   5 C5             0.0259    -0.0175     2.5003 C.3     
   6 O6             0.0066     1.4114     2.5082 O.3     
   7 C7             0.7659    -0.5243     3.7399 C.3     
   8 O8             0.7853    -1.9532     3.7320 O.3     
   9 C9             0.0498    -0.0309     4.9987 C.3     
  10 C10            0.7909    -3.9450    -1.5170 C.2     
  11 N11           -0.1715    -2.9781    -1.8303 N.3     
  12 C12            0.5237    -1.7337    -1.8630 C.2     
  13 C13            1.3505    -1.7619    -2.9470 C.2     
  14 C14            1.1003    -3.1306    -3.5827 C.3     
  15 N15            1.5993    -4.0868    -2.5444 N.2     
  16 N16            2.0271    -0.5890    -2.9983 N.pl3   
  17 C17            0.7074    -0.4901    -1.2379 C.2     
  18 C18            1.6314     0.1919    -1.9496 C.2     
  19 O19            1.5488    -3.3238    -4.9257 O.3     
  20 N20            0.8800    -4.6300    -0.3277 N.pl3   
  21 N21           -0.3816    -3.2503    -3.2846 N.3     
  22 P22            0.3444    -0.0478     7.6545 P.3     
  23 O23            0.1287     1.4118     7.7702 O.2     
  24 O24            0.8039    -0.4051     6.1533 O.3     
  25 O25            1.4899    -0.5048     8.6895 O.3     
  26 O26           -1.0259    -0.8215     7.9947 O.3     
  27 H27            0.8606     1.8301     0.0037 H       
  28 H28           -1.0205    -0.3814     0.0098 H       
  29 H29            1.7647    -0.1336     1.2338 H       
  30 H30           -0.1165    -2.3450     1.2399 H       
  31 H31           -0.9967    -0.3948     2.5081 H       
  32 H32            0.8845     1.8167     2.5020 H       
  33 H33            1.7885    -0.1470     3.7321 H       
  34 H34           -0.0926    -2.3585     3.7382 H       
  35 H35           -0.0436     1.0545     4.9617 H       
  36 H36           -0.9423    -0.4793     5.0517 H       
  37 H37            2.6841    -0.3444    -3.6687 H       
  38 H38            1.9953     1.1841    -1.7271 H       
  39 H39            1.3659    -4.2054    -5.2785 H       
  40 H40            0.2400    -4.4574     0.3805 H       
  41 H41            1.5828    -5.2856    -0.1971 H       
  42 H42           -0.7051    -4.1944    -3.4327 H       
  43 H43            1.2800    -0.3199     9.6151 H       
  44 H44           -0.9583    -1.7845     7.9385 H       
@<TRIPOS>BOND
   1    1    2 1
   2    1   27 1
   3    2    3 1
   4    2   17 1
   5    2   28 1
   6    3    4 1
   7    3    5 1
   8    3   29 1
   9    4   30 1
  10    5    6 1
  11    5    7 1
  12    5   31 1
  13    6   32 1
  14    7    8 1
  15    7    9 1
  16    7   33 1
  17    8   34 1
  18    9   24 1
  19    9   35 1
  20    9   36 1
  21   10   11 1
  22   10   15 2
  23   10   20 1
  24   11   12 1
  25   11   21 1
  26   12   13 2
  27   12   17 1
  28   13   14 1
  29   13   16 1
  30   14   15 1
  31   14   19 1
  32   14   21 1
  33   16   18 1
  34   16   37 1
  35   17   18 2
  36   18   38 1
  37   19   39 1
  38   20   40 1
  39   20   41 1
  40   21   42 1
  41   22   23 2
  42   22   24 1
  43   22   25 1
  44   22   26 1
  45   25   43 1
  46   26   44 1

#	End of record

