#	Name: ASD02560047
#	Creating user name:	WinNT
#	Creation time:	15. 06. 2019 20:24

#	Modifying user name:	WinNT
#	Modification time:	15. 06. 2019 20:24

#	Program:	/corina/corina34_cracker 3.40 0067  02.08.2006

@<TRIPOS>MOLECULE
ASD02560047
  41   42    0    0    0
SMALL
NO_CHARGES


@<TRIPOS>ATOM
   1 C1            -1.7318    -0.7019    -1.2581 C.3     
   2 C2            -0.6711     0.1008    -0.4868 C.3     
   3 S3             0.9540    -0.5977    -0.9183 S.3     
   4 C4             0.7996    -0.8011    -2.6653 C.2     
   5 C5            -0.3955    -0.7276    -3.2592 C.2     
   6 O6            -1.5594    -0.4788    -2.6530 O.3     
   7 C7             1.9951    -1.0528    -3.4732 C.2     
   8 N8             3.2071    -0.6782    -3.0180 N.am    
   9 C9            -0.4332    -0.9456    -4.7499 C.3     
  10 O10            1.8940    -1.6004    -4.5557 O.2     
  11 C11            4.3592    -1.0153    -3.7369 C.ar    
  12 C12            5.4617    -0.1690    -3.7189 C.ar    
  13 C13            6.6024    -0.4961    -4.4272 C.ar    
  14 C14            6.6549    -1.6669    -5.1584 C.ar    
  15 C15            5.5514    -2.5249    -5.1825 C.ar    
  16 C16            4.4025    -2.1956    -4.4620 C.ar    
  17 C17            5.6033    -3.7772    -5.9632 C.2     
  18 O18            4.5384    -4.6021    -5.9846 O.3     
  19 C19            4.6602    -5.8153    -6.7730 C.3     
  20 C20            5.2198    -6.9385    -5.8976 C.3     
  21 O21            6.6061    -4.0635    -6.5861 O.2     
  22 C22            3.2830    -6.2197    -7.3028 C.3     
  23 Cl23           8.0899    -2.0723    -6.0472 Cl      
  24 H24           -1.6144    -1.7636    -1.0415 H       
  25 H25           -2.7269    -0.3748    -0.9568 H       
  26 H26           -0.7138     1.1497    -0.7800 H       
  27 H27           -0.8423     0.0071     0.5856 H       
  28 H28            3.2807    -0.1749    -2.1921 H       
  29 H29           -0.4832    -2.0140    -4.9597 H       
  30 H30           -1.3108    -0.4518    -5.1671 H       
  31 H31            0.4672    -0.5285    -5.2009 H       
  32 H32            5.4267     0.7480    -3.1494 H       
  33 H33            7.4555     0.1659    -4.4094 H       
  34 H34            3.5468    -2.8544    -4.4762 H       
  35 H35            5.3341    -5.6378    -7.6111 H       
  36 H36            6.2009    -6.6504    -5.5202 H       
  37 H37            4.5459    -7.1159    -5.0595 H       
  38 H38            5.3112    -7.8492    -6.4895 H       
  39 H39            2.8843    -5.4195    -7.9265 H       
  40 H40            3.3744    -7.1304    -7.8947 H       
  41 H41            2.6090    -6.3971    -6.4647 H       
@<TRIPOS>BOND
   1    1    2 1
   2    1    6 1
   3    1   24 1
   4    1   25 1
   5    2    3 1
   6    2   26 1
   7    2   27 1
   8    3    4 1
   9    4    5 2
  10    4    7 1
  11    5    6 1
  12    5    9 1
  13    7    8 am
  14    7   10 2
  15    8   11 1
  16    8   28 1
  17    9   29 1
  18    9   30 1
  19    9   31 1
  20   11   12 ar
  21   11   16 ar
  22   12   13 ar
  23   12   32 1
  24   13   14 ar
  25   13   33 1
  26   14   15 ar
  27   14   23 1
  28   15   16 ar
  29   15   17 1
  30   16   34 1
  31   17   18 1
  32   17   21 2
  33   18   19 1
  34   19   20 1
  35   19   22 1
  36   19   35 1
  37   20   36 1
  38   20   37 1
  39   20   38 1
  40   22   39 1
  41   22   40 1
  42   22   41 1

#	End of record

