#	Name: ASD01917207
#	Creating user name:	WinNT
#	Creation time:	15. 06. 2019 20:08

#	Modifying user name:	WinNT
#	Modification time:	15. 06. 2019 20:08

#	Program:	/corina/corina34_cracker 3.40 0067  02.08.2006

@<TRIPOS>MOLECULE
ASD01917207
  28   30    0    0    0
SMALL
NO_CHARGES


@<TRIPOS>ATOM
   1 C1            -0.1045     1.4217     0.2362 C.2     
   2 C2            -0.0319    -0.0488     0.2488 C.2     
   3 N3             1.0111     2.1844    -0.0278 N.pl3   
   4 N4             1.2089    -0.5894     0.1921 N.am    
   5 C5             2.4084     0.2223     0.3653 C.3     
   6 C6             2.3069     1.5770    -0.3361 C.3     
   7 N7             0.6373     3.5197     0.0511 N.2     
   8 C8            -0.6476     3.5810     0.3336 C.2     
   9 C9            -1.1445     2.2761     0.4575 C.2     
  10 O10           -1.0311    -0.7401     0.3072 O.2     
  11 O11           -1.3722     4.7221     0.4839 O.3     
  12 C12            1.3434    -1.9632    -0.0381 C.ar    
  13 C13            1.8410    -2.7902     0.9604 C.ar    
  14 C14            1.9730    -4.1457     0.7310 C.ar    
  15 C15            1.6096    -4.6803    -0.4936 C.ar    
  16 C16            1.1137    -3.8574    -1.4908 C.ar    
  17 C17            0.9742    -2.5023    -1.2636 C.ar    
  18 F18            1.7396    -6.0065    -0.7159 F       
  19 H19            2.5710     0.3879     1.4303 H       
  20 H20            3.2626    -0.3207    -0.0391 H       
  21 H21            2.3962     1.4370    -1.4133 H       
  22 H22            3.1071     2.2289     0.0144 H       
  23 H23           -2.1631     1.9984     0.6847 H       
  24 H24           -1.7720     5.0448    -0.3353 H       
  25 H25            2.1249    -2.3736     1.9155 H       
  26 H26            2.3603    -4.7891     1.5072 H       
  27 H27            0.8312    -4.2763    -2.4454 H       
  28 H28            0.5829    -1.8616    -2.0399 H       
@<TRIPOS>BOND
   1    1    2 1
   2    1    3 1
   3    1    9 2
   4    2    4 am
   5    2   10 2
   6    3    6 1
   7    3    7 1
   8    4    5 1
   9    4   12 1
  10    5    6 1
  11    5   19 1
  12    5   20 1
  13    6   21 1
  14    6   22 1
  15    7    8 2
  16    8    9 1
  17    8   11 1
  18    9   23 1
  19   11   24 1
  20   12   13 ar
  21   12   17 ar
  22   13   14 ar
  23   13   25 1
  24   14   15 ar
  25   14   26 1
  26   15   16 ar
  27   15   18 1
  28   16   17 ar
  29   16   27 1
  30   17   28 1

#	End of record

