#	Name: ASD03180098
#	Creating user name:	WinNT
#	Creation time:	15. 06. 2019 20:33

#	Modifying user name:	WinNT
#	Modification time:	15. 06. 2019 20:33

#	Program:	/corina/corina34_cracker 3.40 0067  02.08.2006

@<TRIPOS>MOLECULE
ASD03180098
  42   44    0    0    0
SMALL
NO_CHARGES


@<TRIPOS>ATOM
   1 N1             0.2955     1.4145    -0.6077 N.pl3   
   2 C2             0.4938     0.0345    -0.7056 C.ar    
   3 C3             1.8246    -1.8269    -1.4234 C.ar    
   4 C4             0.8864    -2.6977    -0.8993 C.ar    
   5 C5            -0.2500    -2.2060    -0.2839 C.ar    
   6 C6            -0.4491    -0.8428    -0.1855 C.ar    
   7 C7             1.6318    -0.4630    -1.3284 C.ar    
   8 C8            -1.6877    -0.3079     0.4859 C.3     
   9 C9            -2.7560    -0.0187    -0.5706 C.3     
  10 N10            1.3284     3.5596    -0.4944 N.2     
  11 C11            2.4811     4.2127    -0.3572 C.2     
  12 C12            1.3837     2.2637    -0.4797 C.2     
  13 S13            3.0552     1.7506    -0.2718 S.3     
  14 C14            3.5690     3.4351    -0.2192 C.2     
  15 C15            2.5591     5.6937    -0.3573 C.ar    
  16 C16            2.7051     8.4585    -0.3566 C.ar    
  17 C17            1.7541     7.8184     0.4181 C.ar    
  18 C18            1.6767     6.4408     0.4217 C.ar    
  19 C19            3.5184     6.3437    -1.1316 C.ar    
  20 C20            3.5866     7.7222    -1.1273 C.ar    
  21 C21            0.6399     5.7451     1.2656 C.3     
  22 C22            2.7846     9.9634    -0.3563 C.3     
  23 H23           -0.6033     1.7783    -0.6334 H       
  24 H24            2.7111    -2.2142    -1.9034 H       
  25 H25            1.0395    -3.7641    -0.9752 H       
  26 H26           -0.9808    -2.8887     0.1240 H       
  27 H27            2.3646     0.2164    -1.7382 H       
  28 H28           -2.0660    -1.0468     1.1923 H       
  29 H29           -1.4443     0.6119     1.0177 H       
  30 H30           -2.9994    -0.9385    -1.1024 H       
  31 H31           -3.6519     0.3682    -0.0850 H       
  32 H32           -2.3777     0.7202    -1.2770 H       
  33 H33            4.5839     3.7833    -0.0968 H       
  34 H34            1.0686     8.3984     1.0182 H       
  35 H35            4.2075     5.7698    -1.7335 H       
  36 H36            4.3267     8.2271    -1.7304 H       
  37 H37           -0.2438     5.5414     0.6609 H       
  38 H38            1.0474     4.8066     1.6413 H       
  39 H39            0.3663     6.3843     2.1051 H       
  40 H40            3.4666    10.2910     0.4284 H       
  41 H41            3.1509    10.3081    -1.3233 H       
  42 H42            1.7939    10.3795    -0.1737 H       
@<TRIPOS>BOND
   1    1    2 1
   2    1   12 1
   3    1   23 1
   4    2    7 ar
   5    2    6 ar
   6    3    4 ar
   7    3    7 ar
   8    3   24 1
   9    4    5 ar
  10    4   25 1
  11    5    6 ar
  12    5   26 1
  13    6    8 1
  14    7   27 1
  15    8    9 1
  16    8   28 1
  17    8   29 1
  18    9   30 1
  19    9   31 1
  20    9   32 1
  21   10   12 2
  22   10   11 1
  23   11   14 2
  24   11   15 1
  25   12   13 1
  26   13   14 1
  27   14   33 1
  28   15   19 ar
  29   15   18 ar
  30   16   17 ar
  31   16   20 ar
  32   16   22 1
  33   17   18 ar
  34   17   34 1
  35   18   21 1
  36   19   20 ar
  37   19   35 1
  38   20   36 1
  39   21   37 1
  40   21   38 1
  41   21   39 1
  42   22   40 1
  43   22   41 1
  44   22   42 1

#	End of record

