#	Name: ASD04550045
#	Creating user name:	WinNT
#	Creation time:	15. 06. 2019 20:49

#	Modifying user name:	WinNT
#	Modification time:	15. 06. 2019 20:49

#	Program:	/corina/corina34_cracker 3.40 0067  02.08.2006

@<TRIPOS>MOLECULE
ASD04550045
  29   29    0    0    0
SMALL
NO_CHARGES


@<TRIPOS>ATOM
   1 C1             0.0798     1.3248     0.1104 C.ar    
   2 C2             0.0307    -0.0571    -0.0231 C.ar    
   3 C3             1.2065    -0.7779    -0.1888 C.ar    
   4 C4             2.4199    -0.1191    -0.2204 C.ar    
   5 C5             2.4652     1.2565    -0.0868 C.ar    
   6 C6             1.2965     1.9772     0.0779 C.ar    
   7 C7             3.7911     1.9719    -0.1212 C.3     
   8 C8             3.8029     2.9684    -1.2822 C.3     
   9 N9            -1.1982    -0.7202     0.0098 N.am    
  10 S10           -1.6429    -1.5733     1.3577 S.o2    
  11 C11           -1.7585    -0.3231     2.6669 C.3     
  12 O12           -2.9305    -2.0837     1.0404 O.2     
  13 O13           -0.5474    -2.4463     1.5971 O.2     
  14 C14            3.9975     2.7100     1.1763 C.2     
  15 O15            3.1545     2.6601     2.0404 O.2     
  16 O16            5.1180     3.4227     1.3722 O.3     
  17 H17           -0.8329     1.8886     0.2349 H       
  18 H18            1.1719    -1.8524    -0.2924 H       
  19 H19            3.3344    -0.6790    -0.3492 H       
  20 H20            1.3354     3.0515     0.1819 H       
  21 H21            4.5924     1.2456    -0.2576 H       
  22 H22            3.6536     2.4346    -2.2207 H       
  23 H23            3.0017     3.6947    -1.1458 H       
  24 H24            4.7620     3.4858    -1.3071 H       
  25 H25           -1.7911    -0.6810    -0.7569 H       
  26 H26           -2.4382     0.4693     2.3536 H       
  27 H27           -2.1358    -0.7859     3.5789 H       
  28 H28           -0.7711     0.0984     2.8551 H       
  29 H29            5.2055     3.8789     2.2203 H       
@<TRIPOS>BOND
   1    1    2 ar
   2    1    6 ar
   3    1   17 1
   4    2    3 ar
   5    2    9 1
   6    3    4 ar
   7    3   18 1
   8    4    5 ar
   9    4   19 1
  10    5    6 ar
  11    5    7 1
  12    6   20 1
  13    7    8 1
  14    7   14 1
  15    7   21 1
  16    8   22 1
  17    8   23 1
  18    8   24 1
  19    9   10 am
  20    9   25 1
  21   10   11 1
  22   10   12 2
  23   10   13 2
  24   11   26 1
  25   11   27 1
  26   11   28 1
  27   14   15 2
  28   14   16 1
  29   16   29 1

#	End of record

