#	Name: ASD00310054
#	Creating user name:	WinNT
#	Creation time:	15. 06. 2019 18:33

#	Modifying user name:	WinNT
#	Modification time:	15. 06. 2019 18:33

#	Program:	/corina/corina34_cracker 3.40 0067  02.08.2006

@<TRIPOS>MOLECULE
ASD00310054
  26   27    0    0    0
SMALL
NO_CHARGES


@<TRIPOS>ATOM
   1 C1            -0.0184     1.5028     0.0103 C.2     
   2 C2             0.0021    -0.0041     0.0020 C.3     
   3 C3            -1.4117    -0.5257     0.0127 C.ar    
   4 C4            -2.0714    -0.7584    -1.1796 C.ar    
   5 C5            -3.3680    -1.2373    -1.1703 C.ar    
   6 C6            -4.0054    -1.4836     0.0323 C.ar    
   7 C7            -3.3449    -1.2506     1.2252 C.ar    
   8 C8            -2.0466    -0.7767     1.2148 C.ar    
   9 Br9           -5.7795    -2.1381     0.0458 Br      
  10 N10            1.1395     2.1925     0.0030 N.am    
  11 C11            1.5271     3.6111     0.0069 C.3     
  12 C12            2.8237     3.2030    -0.7062 C.3     
  13 C13            2.5715     1.8576    -0.0059 C.3     
  14 O14           -1.0768     2.0948     0.0185 O.2     
  15 H15            0.5123    -0.3556    -0.8948 H       
  16 H16            0.5293    -0.3651     0.8851 H       
  17 H17           -1.5738    -0.5657    -2.1186 H       
  18 H18           -3.8834    -1.4187    -2.1019 H       
  19 H19           -3.8424    -1.4424     2.1644 H       
  20 H20           -1.5293    -0.5986     2.1460 H       
  21 H21            0.8770     4.2404    -0.6010 H       
  22 H22            1.6898     4.0139     1.0066 H       
  23 H23            2.7439     3.1669    -1.7927 H       
  24 H24            3.7116     3.7281    -0.3543 H       
  25 H25            3.0096     1.7980     0.9904 H       
  26 H26            2.8113     0.9928    -0.6247 H       
@<TRIPOS>BOND
   1    1    2 1
   2    1   10 am
   3    1   14 2
   4    2    3 1
   5    2   15 1
   6    2   16 1
   7    3    4 ar
   8    3    8 ar
   9    4    5 ar
  10    4   17 1
  11    5    6 ar
  12    5   18 1
  13    6    7 ar
  14    6    9 1
  15    7    8 ar
  16    7   19 1
  17    8   20 1
  18   10   11 1
  19   10   13 1
  20   11   12 1
  21   11   21 1
  22   11   22 1
  23   12   13 1
  24   12   23 1
  25   12   24 1
  26   13   25 1
  27   13   26 1

#	End of record

