#	Name: ASD01912471
#	Creating user name:	WinNT
#	Creation time:	15. 06. 2019 19:59

#	Modifying user name:	WinNT
#	Modification time:	15. 06. 2019 19:59

#	Program:	/corina/corina34_cracker 3.40 0067  02.08.2006

@<TRIPOS>MOLECULE
ASD01912471
  39   41    0    0    0
SMALL
NO_CHARGES


@<TRIPOS>ATOM
   1 C1             0.5483     0.2354    -1.3758 C.ar    
   2 C2            -0.0123     0.0062    -0.1275 C.ar    
   3 C3             0.6104     0.4981     1.0108 C.ar    
   4 C4             1.7862     1.2144     0.8986 C.ar    
   5 C5             2.3427     1.4414    -0.3466 C.ar    
   6 C6             1.7243     0.9523    -1.4825 C.ar    
   7 O7            -1.1693    -0.6983    -0.0198 O.3     
   8 C8            -1.1035    -2.0505    -0.1187 C.ar    
   9 C9             0.1164    -2.6929    -0.3290 C.ar    
  10 C10            0.1458    -4.0678    -0.4245 C.ar    
  11 N11           -0.9617    -4.7787    -0.3197 N.ar    
  12 C12           -2.1404    -4.2084    -0.1198 C.ar    
  13 C13           -2.2495    -2.8290    -0.0072 C.ar    
  14 N14           -3.2814    -5.0013    -0.0158 N.am    
  15 C15           -3.2023    -6.3284    -0.2373 C.2     
  16 C16           -4.4296    -7.1521    -0.2374 C.ar    
  17 C17           -4.3511    -8.5267    -0.4665 C.ar    
  18 C18           -5.5003    -9.2904    -0.4654 C.ar    
  19 C19           -6.7289    -8.6971    -0.2380 C.ar    
  20 C20           -6.8146    -7.3336    -0.0104 C.ar    
  21 C21           -5.6716    -6.5594    -0.0027 C.ar    
  22 Cl22          -8.3612    -6.5981     0.2735 Cl      
  23 O23           -2.1217    -6.8479    -0.4370 O.2     
  24 C24            3.6253     2.2235    -0.4661 C.3     
  25 F25            4.7138     1.3475    -0.3977 F       
  26 F26            3.6469     2.8995    -1.6907 F       
  27 F27            3.7057     3.1498     0.5793 F       
  28 H28            0.0680    -0.1502    -2.2630 H       
  29 H29            0.1759     0.3214     1.9836 H       
  30 H30            2.2710     1.5978     1.7842 H       
  31 H31            2.1612     1.1306    -2.4540 H       
  32 H32            1.0276    -2.1198    -0.4164 H       
  33 H33            1.0878    -4.5703    -0.5877 H       
  34 H34           -3.2120    -2.3671     0.1557 H       
  35 H35           -4.1327    -4.5982     0.2160 H       
  36 H36           -3.3927    -8.9916    -0.6446 H       
  37 H37           -5.4403   -10.3540    -0.6429 H       
  38 H38           -7.6252    -9.2995    -0.2382 H       
  39 H39           -5.7391    -5.4963     0.1752 H       
@<TRIPOS>BOND
   1    1    2 ar
   2    1    6 ar
   3    1   28 1
   4    2    3 ar
   5    2    7 1
   6    3    4 ar
   7    3   29 1
   8    4    5 ar
   9    4   30 1
  10    5    6 ar
  11    5   24 1
  12    6   31 1
  13    7    8 1
  14    8    9 ar
  15    8   13 ar
  16    9   10 ar
  17    9   32 1
  18   10   11 ar
  19   10   33 1
  20   11   12 ar
  21   12   13 ar
  22   12   14 1
  23   13   34 1
  24   14   15 am
  25   14   35 1
  26   15   16 1
  27   15   23 2
  28   16   17 ar
  29   16   21 ar
  30   17   18 ar
  31   17   36 1
  32   18   19 ar
  33   18   37 1
  34   19   20 ar
  35   19   38 1
  36   20   21 ar
  37   20   22 1
  38   21   39 1
  39   24   25 1
  40   24   26 1
  41   24   27 1

#	End of record

