#	Name: ASD06650001
#	Creating user name:	WinNT
#	Creation time:	15. 06. 2019 21:07

#	Modifying user name:	WinNT
#	Modification time:	15. 06. 2019 21:07

#	Program:	/corina/corina34_cracker 3.40 0067  02.08.2006

@<TRIPOS>MOLECULE
ASD06650001
 147  147    0    0    0
SMALL
NO_CHARGES


@<TRIPOS>ATOM
   1 C1             0.0763     0.1566    -3.3499 C.3     
   2 C2             0.0258    -1.3377    -3.6743 C.3     
   3 C3             0.7830    -2.1190    -2.5986 C.3     
   4 C4             0.1336    -1.8707    -1.2357 C.3     
   5 C5             0.1842    -0.3764    -0.9113 C.3     
   6 C6            -0.5731     0.4049    -1.9870 C.3     
   7 O7            -1.2274    -2.3049    -1.2704 O.3     
   8 O8            -0.4223    -0.1445     0.3617 O.3     
   9 O9             1.4373     0.5908    -3.3152 O.3     
  10 O10           -1.3352    -1.7719    -3.7089 O.3     
  11 O11            0.7358    -3.5147    -2.9016 O.3     
  12 O12           -0.5259     1.8006    -1.6840 O.3     
  13 P13           -1.8452     2.6882    -1.4316 P.3     
  14 O14           -1.4264     4.2320    -1.2483 O.3     
  15 O15           -2.7962     2.5528    -2.6416 O.co2   
  16 O16           -2.5620     2.1940    -0.1553 O.co2   
  17 C17           -2.3812     5.2865    -1.1121 C.3     
  18 C18           -1.6487     6.6207    -0.9569 C.3     
  19 C19           -0.6678     6.5309     0.2139 C.3     
  20 O20           -0.9198     6.9176    -2.1772 O.3     
  21 O21            0.2225     5.4015     0.0139 O.3     
  22 C22           -1.5700     7.6171    -3.1204 C.2     
  23 C23           -0.8776     7.9627    -4.4136 C.3     
  24 O24           -2.7103     7.9698    -2.9327 O.2     
  25 C25            1.1501     5.1819     0.9589 C.2     
  26 C26            2.1094     4.0281     0.8194 C.3     
  27 O27            1.2159     5.9093     1.9214 O.2     
  28 C28            3.0550     4.0028     2.0220 C.3     
  29 C29            4.0289     2.8313     1.8804 C.3     
  30 C30            4.9745     2.8060     3.0830 C.3     
  31 C31            5.9484     1.6346     2.9414 C.3     
  32 C32           -1.8327     8.7568    -5.3070 C.3     
  33 C33           -1.1297     9.1076    -6.6199 C.3     
  34 C34           -2.0704     9.8898    -7.5000 C.2     
  35 C35           -1.7896    11.1284    -7.8210 C.2     
  36 C36            6.8940     1.6093     4.1439 C.3     
  37 C37            7.8680     0.4378     4.0023 C.3     
  38 C38            8.8135     0.4125     5.2049 C.3     
  39 C39            9.7875    -0.7589     5.0633 C.3     
  40 C40           10.7330    -0.7842     6.2659 C.3     
  41 C41           11.7070    -1.9557     6.1243 C.3     
  42 C42           12.6525    -1.9810     7.3269 C.3     
  43 C43           13.6265    -3.1524     7.1853 C.3     
  44 C44           14.5720    -3.1777     8.3878 C.3     
  45 C45           15.5460    -4.3491     8.2462 C.3     
  46 C46           16.4916    -4.3745     9.4488 C.3     
  47 C47           -0.6319    11.8335    -7.1625 C.3     
  48 C48            0.4094    12.1662    -8.1998 C.2     
  49 C49            0.8430    13.3964    -8.3215 C.2     
  50 C50            0.4237    14.4453    -7.3240 C.3     
  51 C51            1.6464    15.1370    -6.7785 C.2     
  52 C52            1.7344    16.4433    -6.8227 C.2     
  53 C53            0.5515    17.2635    -7.2690 C.3     
  54 C54            0.2588    18.3245    -6.2396 C.2     
  55 C55            0.2321    19.5867    -6.5891 C.2     
  56 C56            0.6673    19.9947    -7.9730 C.3     
  57 C57           -0.4795    20.6677    -8.6823 C.2     
  58 C58           -0.3137    21.8510    -9.2192 C.2     
  59 C59            1.0614    22.4648    -9.2803 C.3     
  60 C60            1.3700    22.8821   -10.7196 C.3     
  61 C61            2.7660    23.5052   -10.7817 C.3     
  62 C62            3.0747    23.9225   -12.2209 C.3     
  63 C63            4.4707    24.5456   -12.2830 C.3     
  64 H64           -0.4632     0.7132    -4.1162 H       
  65 H65            0.4884    -1.5146    -4.6452 H       
  66 H66            1.8212    -1.7878    -2.5722 H       
  67 H67            0.6731    -2.4273    -0.4694 H       
  68 H68            1.2223    -0.0452    -0.8848 H       
  69 H69           -1.6112     0.0738    -2.0134 H       
  70 H70           -1.3354    -3.2446    -1.4710 H       
  71 H71            0.0070    -0.6098     1.0925 H       
  72 H72            1.9121     0.4633    -4.1479 H       
  73 H73           -1.4433    -2.7116    -3.9096 H       
  74 H74            1.1969    -4.0723    -2.2600 H       
  75 H75           -3.0140     5.3204    -1.9990 H       
  76 H76           -2.9985     5.1064    -0.2320 H       
  77 H77           -2.3727     7.4125    -0.7644 H       
  78 H78           -0.0831     7.4491     0.2693 H       
  79 H79           -1.2222     6.3965     1.1428 H       
  80 H80            0.0070     8.5637    -4.2028 H       
  81 H81           -0.5810     7.0460    -4.9232 H       
  82 H82            1.5500     3.0935     0.7773 H       
  83 H83            2.6891     4.1461    -0.0961 H       
  84 H84            3.6144     4.9373     2.0641 H       
  85 H85            2.4753     3.8847     2.9375 H       
  86 H86            3.4695     1.8968     1.8383 H       
  87 H87            4.6086     2.9494     0.9649 H       
  88 H88            5.5339     3.7406     3.1251 H       
  89 H89            4.3948     2.6879     3.9985 H       
  90 H90            5.3891     0.7000     2.8993 H       
  91 H91            6.5281     1.7526     2.0258 H       
  92 H92           -2.7172     8.1558    -5.5178 H       
  93 H93           -2.1292     9.6735    -4.7974 H       
  94 H94           -0.2452     9.7086    -6.4091 H       
  95 H95           -0.8331     8.1909    -7.1295 H       
  96 H96           -2.9761     9.4291    -7.8659 H       
  97 H97           -2.3877    11.6442    -8.5577 H       
  98 H98            7.4534     2.5438     4.1860 H       
  99 H99            6.3143     1.4912     5.0595 H       
 100 H100           7.3086    -0.4967     3.9602 H       
 101 H101           8.4476     0.5559     3.0868 H       
 102 H102           9.3729     1.3471     5.2470 H       
 103 H103           8.2339     0.2945     6.1204 H       
 104 H104           9.2281    -1.6935     5.0212 H       
 105 H105          10.3671    -0.6408     4.1478 H       
 106 H106          11.2924     0.1503     6.3080 H       
 107 H107          10.1534    -0.9023     7.1814 H       
 108 H108          11.1476    -2.8902     6.0822 H       
 109 H109          12.2866    -1.8376     5.2088 H       
 110 H110          13.2119    -1.0464     7.3690 H       
 111 H111          12.0729    -2.0990     8.2424 H       
 112 H112          13.0671    -4.0870     7.1431 H       
 113 H113          14.2061    -3.0343     6.2697 H       
 114 H114          15.1314    -2.2432     8.4299 H       
 115 H115          13.9924    -3.2958     9.3034 H       
 116 H116          14.9866    -5.2837     8.2041 H       
 117 H117          16.1257    -4.2311     7.3307 H       
 118 H118          15.9119    -4.4925    10.3643 H       
 119 H119          17.1854    -5.2090     9.3479 H       
 120 H120          17.0510    -3.4399     9.4909 H       
 121 H121          -0.9849    12.7523    -6.6943 H       
 122 H122          -0.1947    11.1840    -6.4041 H       
 123 H123           0.7982    11.3905    -8.8428 H       
 124 H124           1.5009    13.6589    -9.1368 H       
 125 H125          -0.2191    15.1765    -7.8142 H       
 126 H126          -0.1212    13.9724    -6.5069 H       
 127 H127           2.4500    14.5558    -6.3511 H       
 128 H128           2.6546    16.9324    -6.5393 H       
 129 H129           0.7775    17.7369    -8.2245 H       
 130 H130          -0.3181    16.6161    -7.3809 H       
 131 H131           0.0710    18.0442    -5.2136 H       
 132 H132          -0.1018    20.3349    -5.8855 H       
 133 H133           1.5063    20.6868    -7.9008 H       
 134 H134           0.9726    19.1109    -8.5332 H       
 135 H135          -1.4380    20.1744    -8.7479 H       
 136 H136          -1.1624    22.3868    -9.6180 H       
 137 H137           1.0975    23.3406    -8.6324 H       
 138 H138           1.7999    21.7356    -8.9471 H       
 139 H139           1.3339    22.0063   -11.3675 H       
 140 H140           0.6315    23.6113   -11.0528 H       
 141 H141           2.8021    24.3810   -10.1337 H       
 142 H142           3.5045    22.7760   -10.4485 H       
 143 H143           3.0386    23.0467   -12.8688 H       
 144 H144           2.3362    24.6517   -12.5541 H       
 145 H145           4.6906    24.8429   -13.3084 H       
 146 H146           4.5068    25.4214   -11.6351 H       
 147 H147           5.2092    23.8165   -11.9498 H       
@<TRIPOS>BOND
   1    1    2 1
   2    1    9 1
   3    1    6 1
   4    1   64 1
   5    2    3 1
   6    2   10 1
   7    2   65 1
   8    3    4 1
   9    3   11 1
  10    3   66 1
  11    4    5 1
  12    4    7 1
  13    4   67 1
  14    5    6 1
  15    5    8 1
  16    5   68 1
  17    6   12 1
  18    6   69 1
  19    7   70 1
  20    8   71 1
  21    9   72 1
  22   10   73 1
  23   11   74 1
  24   12   13 1
  25   13   14 1
  26   13   15 ar
  27   13   16 ar
  28   14   17 1
  29   17   18 1
  30   17   75 1
  31   17   76 1
  32   18   19 1
  33   18   20 1
  34   18   77 1
  35   19   21 1
  36   19   78 1
  37   19   79 1
  38   20   22 1
  39   21   25 1
  40   22   23 1
  41   22   24 2
  42   23   32 1
  43   23   80 1
  44   23   81 1
  45   25   26 1
  46   25   27 2
  47   26   28 1
  48   26   82 1
  49   26   83 1
  50   28   29 1
  51   28   84 1
  52   28   85 1
  53   29   30 1
  54   29   86 1
  55   29   87 1
  56   30   31 1
  57   30   88 1
  58   30   89 1
  59   31   36 1
  60   31   90 1
  61   31   91 1
  62   32   33 1
  63   32   92 1
  64   32   93 1
  65   33   34 1
  66   33   94 1
  67   33   95 1
  68   34   35 2
  69   34   96 1
  70   35   47 1
  71   35   97 1
  72   36   37 1
  73   36   98 1
  74   36   99 1
  75   37   38 1
  76   37  100 1
  77   37  101 1
  78   38   39 1
  79   38  102 1
  80   38  103 1
  81   39   40 1
  82   39  104 1
  83   39  105 1
  84   40   41 1
  85   40  106 1
  86   40  107 1
  87   41   42 1
  88   41  108 1
  89   41  109 1
  90   42   43 1
  91   42  110 1
  92   42  111 1
  93   43   44 1
  94   43  112 1
  95   43  113 1
  96   44   45 1
  97   44  114 1
  98   44  115 1
  99   45   46 1
 100   45  116 1
 101   45  117 1
 102   46  118 1
 103   46  119 1
 104   46  120 1
 105   47   48 1
 106   47  121 1
 107   47  122 1
 108   48   49 2
 109   48  123 1
 110   49   50 1
 111   49  124 1
 112   50   51 1
 113   50  125 1
 114   50  126 1
 115   51   52 2
 116   51  127 1
 117   52   53 1
 118   52  128 1
 119   53   54 1
 120   53  129 1
 121   53  130 1
 122   54   55 2
 123   54  131 1
 124   55   56 1
 125   55  132 1
 126   56   57 1
 127   56  133 1
 128   56  134 1
 129   57   58 2
 130   57  135 1
 131   58   59 1
 132   58  136 1
 133   59   60 1
 134   59  137 1
 135   59  138 1
 136   60   61 1
 137   60  139 1
 138   60  140 1
 139   61   62 1
 140   61  141 1
 141   61  142 1
 142   62   63 1
 143   62  143 1
 144   62  144 1
 145   63  145 1
 146   63  146 1
 147   63  147 1

#	End of record

