#	Name: ASD05430070
#	Creating user name:	WinNT
#	Creation time:	15. 06. 2019 20:59

#	Modifying user name:	WinNT
#	Modification time:	15. 06. 2019 20:59

#	Program:	/corina/corina34_cracker 3.40 0067  02.08.2006

@<TRIPOS>MOLECULE
ASD05430070
  63   68    0    0    0
SMALL
NO_CHARGES


@<TRIPOS>ATOM
   1 C1             0.0549     1.1857     0.3881 C.ar    
   2 C2             0.0203    -0.0139    -0.3219 C.ar    
   3 C3             1.1711    -0.4983    -0.9300 C.ar    
   4 C4             2.3529     0.2039    -0.8343 C.ar    
   5 C5             2.3953     1.4081    -0.1238 C.ar    
   6 C6             1.2365     1.8959     0.4881 C.ar    
   7 C7             4.8690    -0.0051     0.2173 C.3     
   8 C8             4.8285     1.4999     0.0679 C.2     
   9 C9             3.6566     2.1594    -0.0200 C.2     
  10 C10            6.2149    -0.4373     0.7891 C.3     
  11 C11            6.8782     0.5914     1.7017 C.3     
  12 N12            7.0889     1.8299     0.9487 N.pl3   
  13 C13            6.1106     2.2195     0.0221 C.2     
  14 N14           -1.1792    -0.7332    -0.4217 N.pl3   
  15 C15           -1.7425    -1.2226    -1.5715 C.2     
  16 C16           -2.8826    -1.8439    -1.2137 C.2     
  17 N17           -3.0164    -1.7396     0.1167 N.2     
  18 C18           -1.9994    -1.0814     0.6033 C.2     
  19 C19           -3.8420    -2.5366    -2.1468 C.3     
  20 C20           -0.9668     2.8944     1.6884 C.3     
  21 O21           -1.0749     1.6596     0.9773 O.3     
  22 C22            8.2652     2.6723     1.1592 C.3     
  23 C23            8.7536     3.1866    -0.1998 C.3     
  24 N24            7.6196     3.7269    -0.9534 N.pl3   
  25 N25            6.3498     3.1473    -0.8499 N.2     
  26 C26            7.8996     3.8396     2.0394 C.ar    
  27 C27            8.7785     4.2704     3.0156 C.ar    
  28 C28            6.6881     4.4825     1.8661 C.ar    
  29 C29            6.3521     5.5536     2.6721 C.ar    
  30 C30            7.2293     5.9826     3.6537 C.ar    
  31 C31            8.4445     5.3410     3.8231 C.ar    
  32 F32            6.9019     7.0297     4.4422 F       
  33 C33            6.2000    -1.8556     1.3813 C.3     
  34 C34            7.5449    -2.0490     0.6545 C.3     
  35 O35            7.1085    -0.9738    -0.2024 O.3     
  36 H36            1.1398    -1.4279    -1.4789 H       
  37 H37            3.2465    -0.1756    -1.3076 H       
  38 H38            1.2647     2.8252     1.0376 H       
  39 H39            4.0717    -0.3234     0.8890 H       
  40 H40            4.7246    -0.4694    -0.7582 H       
  41 H41            3.6429     3.2393    -0.0142 H       
  42 H42            6.2328     0.7900     2.5574 H       
  43 H43            7.8377     0.2072     2.0479 H       
  44 H44           -1.3480    -1.1277    -2.5724 H       
  45 H45           -1.8407    -0.8464     1.6454 H       
  46 H46           -3.5560    -3.5832    -2.2507 H       
  47 H47           -4.8519    -2.4745    -1.7413 H       
  48 H48           -3.8122    -2.0531    -3.1232 H       
  49 H49           -1.9374     3.1580     2.1085 H       
  50 H50           -0.2394     2.7876     2.4932 H       
  51 H51           -0.6409     3.6794     1.0060 H       
  52 H52            9.0534     2.0874     1.6332 H       
  53 H53            9.4948     3.9710    -0.0465 H       
  54 H54            9.2033     2.3659    -0.7587 H       
  55 H55            7.7502     4.4953    -1.5308 H       
  56 H56            9.7264     3.7698     3.1476 H       
  57 H57            6.0040     4.1477     1.1004 H       
  58 H58            5.4059     6.0561     2.5361 H       
  59 H59            9.1294     5.6746     4.5887 H       
  60 H60            6.2792    -1.8800     2.4681 H       
  61 H61            5.3973    -2.4849     0.9969 H       
  62 H62            8.4145    -1.8022     1.2635 H       
  63 H63            7.6371    -3.0085     0.1457 H       
@<TRIPOS>BOND
   1    1    2 ar
   2    1    6 ar
   3    1   21 1
   4    2    3 ar
   5    2   14 1
   6    3    4 ar
   7    3   36 1
   8    4    5 ar
   9    4   37 1
  10    5    6 ar
  11    5    9 1
  12    6   38 1
  13    7    8 1
  14    7   10 1
  15    7   39 1
  16    7   40 1
  17    8    9 2
  18    8   13 1
  19    9   41 1
  20   10   11 1
  21   10   33 1
  22   10   35 1
  23   11   12 1
  24   11   42 1
  25   11   43 1
  26   12   13 1
  27   12   22 1
  28   13   25 2
  29   14   15 1
  30   14   18 1
  31   15   16 2
  32   15   44 1
  33   16   17 1
  34   16   19 1
  35   17   18 2
  36   18   45 1
  37   19   46 1
  38   19   47 1
  39   19   48 1
  40   20   21 1
  41   20   49 1
  42   20   50 1
  43   20   51 1
  44   22   23 1
  45   22   26 1
  46   22   52 1
  47   23   24 1
  48   23   53 1
  49   23   54 1
  50   24   25 1
  51   24   55 1
  52   26   27 ar
  53   26   28 ar
  54   27   31 ar
  55   27   56 1
  56   28   29 ar
  57   28   57 1
  58   29   30 ar
  59   29   58 1
  60   30   31 ar
  61   30   32 1
  62   31   59 1
  63   33   34 1
  64   33   60 1
  65   33   61 1
  66   34   35 1
  67   34   62 1
  68   34   63 1

#	End of record

