#	Name: ASD01000085
#	Creating user name:	WinNT
#	Creation time:	15. 06. 2019 18:54

#	Modifying user name:	WinNT
#	Modification time:	15. 06. 2019 18:54

#	Program:	/corina/corina34_cracker 3.40 0067  02.08.2006

@<TRIPOS>MOLECULE
ASD01000085
  62   65    0    0    0
SMALL
NO_CHARGES


@<TRIPOS>ATOM
   1 C1             6.4024    -1.2817     0.4964 C.ar    
   2 C2             5.0231    -1.2162     0.4794 C.ar    
   3 C3             4.2754    -2.3806     0.3574 C.ar    
   4 C4             4.9185    -3.6074     0.2529 C.ar    
   5 C5             6.2982    -3.6658     0.2705 C.ar    
   6 C6             7.0394    -2.5047     0.3921 C.ar    
   7 N7             2.8802    -2.3180     0.3403 N.pl3   
   8 N8             2.1277    -3.4933     0.2172 N.am    
   9 C9             1.5130    -4.0163     1.3101 C.2     
  10 C10            1.6676    -3.3016     2.6278 C.3     
  11 C11            0.2863    -3.0436     3.2331 C.3     
  12 C12            2.0155    -4.0940    -0.9904 C.2     
  13 C13            1.2142    -5.3243    -1.0624 C.ar    
  14 C14            0.6169    -5.7968     0.1276 C.ar    
  15 N15            0.7989    -5.1002     1.2773 N.2     
  16 C16            1.0356    -6.0192    -2.2570 C.ar    
  17 C17            0.2802    -7.1588    -2.2701 C.ar    
  18 C18           -0.3115    -7.6315    -1.1045 C.ar    
  19 C19           -0.1498    -6.9629     0.0900 C.ar    
  20 C20            3.2125    -6.1657     2.4182 C.3     
  21 C21            2.3155    -5.5888     3.5153 C.3     
  22 N22            2.4549    -4.1307     3.5437 N.am    
  23 C23            0.4312    -2.2571     4.4689 C.1     
  24 C24            2.9512    -7.6671     2.2827 C.3     
  25 N25            3.8124    -8.2209     1.2294 N.3     
  26 Cl26          -1.2649    -9.0814    -1.1536 Cl      
  27 O27            2.5566    -3.6331    -1.9786 O.2     
  28 C28            3.3076    -3.5521     4.4124 C.2     
  29 C29            4.0332    -4.3798     5.3972 C.ar    
  30 O30            3.4795    -2.3490     4.3853 O.2     
  31 C31            4.3242    -3.8689     6.6655 C.ar    
  32 C32            5.0048    -4.6518     7.5823 C.ar    
  33 C33            5.3951    -5.9347     7.2441 C.ar    
  34 C34            5.1093    -6.4444     5.9890 C.ar    
  35 C35            4.4268    -5.6788     5.0679 C.ar    
  36 C36            0.5468    -1.6298     5.4545 C.1     
  37 F37            3.9431    -2.6154     6.9952 F       
  38 Cl38           5.3692    -4.0219     9.1584 Cl      
  39 H39            6.9844    -0.3764     0.5867 H       
  40 H40            4.5262    -0.2608     0.5612 H       
  41 H41            4.3402    -4.5146     0.1582 H       
  42 H42            6.7989    -4.6193     0.1896 H       
  43 H43            8.1183    -2.5531     0.4053 H       
  44 H44            2.4322    -1.4608     0.4137 H       
  45 H45            2.1775    -2.3516     2.4683 H       
  46 H46           -0.3253    -2.4907     2.5202 H       
  47 H47           -0.1935    -3.9951     3.4622 H       
  48 H48            1.4911    -5.6593    -3.1677 H       
  49 H49            0.1414    -7.6972    -3.1960 H       
  50 H50           -0.6135    -7.3380     0.9904 H       
  51 H51            2.9925    -5.6717     1.4718 H       
  52 H52            4.2578    -6.0010     2.6796 H       
  53 H53            1.2773    -5.8506     3.3108 H       
  54 H54            2.6108    -6.0009     4.4802 H       
  55 H55            3.1712    -8.1610     3.2291 H       
  56 H56            1.9059    -7.8318     2.0213 H       
  57 H57            3.6585    -9.2121     1.1204 H       
  58 H58            3.6733    -7.7352     0.3560 H       
  59 H59            5.9258    -6.5418     7.9625 H       
  60 H60            5.4178    -7.4471     5.7324 H       
  61 H61            4.2051    -6.0795     4.0897 H       
  62 H62            0.6502    -1.0687     6.3360 H       
@<TRIPOS>BOND
   1    1    2 ar
   2    1    6 ar
   3    1   39 1
   4    2    3 ar
   5    2   40 1
   6    3    4 ar
   7    3    7 1
   8    4    5 ar
   9    4   41 1
  10    5    6 ar
  11    5   42 1
  12    6   43 1
  13    7    8 1
  14    7   44 1
  15    8    9 1
  16    8   12 am
  17    9   10 1
  18    9   15 2
  19   10   11 1
  20   10   22 1
  21   10   45 1
  22   11   23 1
  23   11   46 1
  24   11   47 1
  25   12   13 1
  26   12   27 2
  27   13   14 ar
  28   13   16 ar
  29   14   15 1
  30   14   19 ar
  31   16   17 ar
  32   16   48 1
  33   17   18 ar
  34   17   49 1
  35   18   19 ar
  36   18   26 1
  37   19   50 1
  38   20   21 1
  39   20   24 1
  40   20   51 1
  41   20   52 1
  42   21   22 1
  43   21   53 1
  44   21   54 1
  45   22   28 am
  46   23   36 3
  47   24   25 1
  48   24   55 1
  49   24   56 1
  50   25   57 1
  51   25   58 1
  52   28   29 1
  53   28   30 2
  54   29   31 ar
  55   29   35 ar
  56   31   32 ar
  57   31   37 1
  58   32   33 ar
  59   32   38 1
  60   33   34 ar
  61   33   59 1
  62   34   35 ar
  63   34   60 1
  64   35   61 1
  65   36   62 1

#	End of record

