#	Name: ASD08178086
#	Creating user name:	WinNT
#	Creation time:	15. 06. 2019 21:18

#	Modifying user name:	WinNT
#	Modification time:	15. 06. 2019 21:18

#	Program:	/corina/corina34_cracker 3.40 0067  02.08.2006

@<TRIPOS>MOLECULE
ASD08178086
  53   56    0    0    0
SMALL
NO_CHARGES


@<TRIPOS>ATOM
   1 N1            -0.0150     1.2583     0.0090 N.2     
   2 N2             0.0021    -0.0041     0.0020 N.2     
   3 C3             1.1271     1.8769     0.0014 C.2     
   4 S4             2.3826     0.7116    -0.0169 S.3     
   5 C5             1.1681    -0.5677    -0.0121 C.2     
   6 N6             1.3017     3.2566     0.0067 N.am    
   7 C7             0.2284     4.0717     0.0214 C.2     
   8 O8            -0.8897     3.6019     0.0299 O.2     
   9 C9             1.4387    -2.0502    -0.0227 C.3     
  10 C10            1.5165    -2.5442    -1.4687 C.3     
  11 C11            2.1699    -6.2152    -3.4347 C.3     
  12 C12            2.2167    -6.5408    -4.9053 C.2     
  13 N13            3.2694    -6.5184    -5.6596 N.2     
  14 S14            0.8491    -7.0282    -5.9071 S.3     
  15 C15            1.9000    -7.1354    -7.2557 C.2     
  16 N16            3.1017    -6.8250    -6.8728 N.2     
  17 N17            1.5289    -7.4992    -8.5457 N.am    
  18 C18            2.4537    -7.5464    -9.5250 C.2     
  19 O19            3.6096    -7.2716    -9.2812 O.2     
  20 C20            2.0516    -7.9407   -10.9228 C.3     
  21 C21            0.4176     5.5667     0.0272 C.3     
  22 C22           -0.9494     6.2538     0.0441 C.3     
  23 C23            3.2807    -7.9145   -11.8336 C.3     
  24 S24            1.8422    -4.3286    -1.4814 S.3     
  25 C25            1.8986    -4.7206    -3.2516 C.3     
  26 C26           -0.9723     7.7784     0.1704 C.3     
  27 C27           -1.3217     7.1159    -1.1638 C.3     
  28 C28            3.1031    -8.3992   -13.2739 C.3     
  29 C29            3.2850    -6.9077   -12.9856 C.3     
  30 H30            2.1959     3.6323    -0.0001 H       
  31 H31            2.3843    -2.2506     0.4811 H       
  32 H32            0.6334    -2.5702     0.4961 H       
  33 H33            0.5709    -2.3438    -1.9724 H       
  34 H34            2.3218    -2.0242    -1.9874 H       
  35 H35            1.3741    -6.7896    -2.9605 H       
  36 H36            3.1250    -6.4700    -2.9755 H       
  37 H37            0.6045    -7.7190    -8.7407 H       
  38 H38            1.6303    -8.9459   -10.9098 H       
  39 H39            1.3064    -7.2392   -11.2980 H       
  40 H40            0.9817     5.8582     0.9132 H       
  41 H41            0.9643     5.8672    -0.8667 H       
  42 H42           -1.7497     5.6964     0.5308 H       
  43 H43            4.2322    -8.1253   -11.3454 H       
  44 H44            2.6943    -4.1461    -3.7258 H       
  45 H45            0.9434    -4.4658    -3.7108 H       
  46 H46           -1.7878     8.2240     0.7398 H       
  47 H47           -0.0135     8.2919     0.2414 H       
  48 H48           -0.5928     7.1937    -1.9705 H       
  49 H49           -2.3671     7.1258    -1.4720 H       
  50 H50            3.9379    -8.9285   -13.7334 H       
  51 H51            2.1106    -8.7366   -13.5726 H       
  52 H52            2.4123    -6.2638   -13.0946 H       
  53 H53            4.2395    -6.4557   -13.2553 H       
@<TRIPOS>BOND
   1    1    2 1
   2    1    3 2
   3    2    5 2
   4    3    4 1
   5    3    6 1
   6    4    5 1
   7    5    9 1
   8    6    7 am
   9    6   30 1
  10    7    8 2
  11    7   21 1
  12    9   10 1
  13    9   31 1
  14    9   32 1
  15   10   24 1
  16   10   33 1
  17   10   34 1
  18   11   12 1
  19   11   25 1
  20   11   35 1
  21   11   36 1
  22   12   13 2
  23   12   14 1
  24   13   16 1
  25   14   15 1
  26   15   16 2
  27   15   17 1
  28   17   18 am
  29   17   37 1
  30   18   19 2
  31   18   20 1
  32   20   23 1
  33   20   38 1
  34   20   39 1
  35   21   22 1
  36   21   40 1
  37   21   41 1
  38   22   26 1
  39   22   27 1
  40   22   42 1
  41   23   28 1
  42   23   29 1
  43   23   43 1
  44   24   25 1
  45   25   44 1
  46   25   45 1
  47   26   27 1
  48   26   46 1
  49   26   47 1
  50   27   48 1
  51   27   49 1
  52   28   29 1
  53   28   50 1
  54   28   51 1
  55   29   52 1
  56   29   53 1

#	End of record

