#	Name: ASD02590013
#	Creating user name:	WinNT
#	Creation time:	15. 06. 2019 20:25

#	Modifying user name:	WinNT
#	Modification time:	15. 06. 2019 20:25

#	Program:	/corina/corina34_cracker 3.40 0067  02.08.2006

@<TRIPOS>MOLECULE
ASD02590013
  27   29    0    0    0
SMALL
NO_CHARGES


@<TRIPOS>ATOM
   1 C1            -0.0167     1.3835     0.0096 C.ar    
   2 C2             0.0021    -0.0041     0.0020 C.ar    
   3 C3             1.1999    -0.6872    -0.0126 C.ar    
   4 C4             2.3947     0.0191    -0.0202 C.ar    
   5 C5             2.3758     1.4260    -0.0129 C.ar    
   6 C6             1.1482     2.0965     0.0024 C.ar    
   7 N7             3.7250    -0.3479    -0.0345 N.pl3   
   8 C8             4.4630     0.8050    -0.0356 C.2     
   9 N9             3.6643     1.8431    -0.0229 N.2     
  10 C10            5.9415     0.8690    -0.0495 C.ar    
  11 C11            6.5800     2.1081    -0.0492 C.ar    
  12 C12            7.9640     2.1516    -0.0623 C.ar    
  13 C13            8.6640     0.9542    -0.0753 C.ar    
  14 C14            7.9655    -0.2407    -0.0748 C.ar    
  15 N15            6.6494    -0.2545    -0.0567 N.ar    
  16 C16            1.1112     3.6031     0.0098 C.3     
  17 H17           -0.9624     1.9050     0.0169 H       
  18 H18           -0.9281    -0.5529     0.0079 H       
  19 H19            1.2082    -1.7672    -0.0178 H       
  20 H20            4.0722    -1.2536    -0.0420 H       
  21 H21            6.0034     3.0213    -0.0392 H       
  22 H22            8.4867     3.0967    -0.0627 H       
  23 H23            9.7440     0.9543    -0.0861 H       
  24 H24            8.5078    -1.1746    -0.0853 H       
  25 H25            1.0921     3.9711    -1.0160 H       
  26 H26            0.2176     3.9419     0.5341 H       
  27 H27            1.9970     3.9858     0.5167 H       
@<TRIPOS>BOND
   1    1    2 ar
   2    1    6 ar
   3    1   17 1
   4    2    3 ar
   5    2   18 1
   6    3    4 ar
   7    3   19 1
   8    4    5 ar
   9    4    7 1
  10    5    6 ar
  11    5    9 1
  12    6   16 1
  13    7    8 1
  14    7   20 1
  15    8    9 2
  16    8   10 1
  17   10   11 ar
  18   10   15 ar
  19   11   12 ar
  20   11   21 1
  21   12   13 ar
  22   12   22 1
  23   13   14 ar
  24   13   23 1
  25   14   15 ar
  26   14   24 1
  27   16   25 1
  28   16   26 1
  29   16   27 1

#	End of record

