#	Name: ASD07930090
#	Creating user name:	WinNT
#	Creation time:	15. 06. 2019 21:11

#	Modifying user name:	WinNT
#	Modification time:	15. 06. 2019 21:11

#	Program:	/corina/corina34_cracker 3.40 0067  02.08.2006

@<TRIPOS>MOLECULE
ASD07930090
  41   41    0    0    0
SMALL
NO_CHARGES


@<TRIPOS>ATOM
   1 C1            -0.1824     1.2341    -0.1047 C.2     
   2 N2            -0.0355    -0.0937     0.0732 N.am    
   3 O3             0.7923     1.9291    -0.3555 O.co2   
   4 O4            -1.2913     1.7434    -0.0202 O.co2   
   5 C5             2.2339    -0.2501     0.9714 C.3     
   6 C6             1.2747    -0.7187    -0.1246 C.3     
   7 C7             1.8293    -0.3183    -1.4931 C.3     
   8 O8             2.4891     1.1472     0.8156 O.3     
   9 C9             3.3283     1.7255     1.7154 C.ar    
  10 C10            3.6199     3.0786     1.6229 C.ar    
  11 C11            4.4723     3.6649     2.5380 C.ar    
  12 C12            5.0362     2.9026     3.5472 C.ar    
  13 C13            4.7462     1.5522     3.6406 C.ar    
  14 C14            3.8893     0.9643     2.7300 C.ar    
  15 C15            3.0071     3.9084     0.5242 C.3     
  16 F16            3.4475     5.2314     0.6382 F       
  17 F17            3.3923     3.3941    -0.7186 F       
  18 F18            1.6129     3.8699     0.6330 F       
  19 F19            5.8706     3.4771     4.4410 F       
  20 C20           -1.1859    -0.9121     0.4643 C.3     
  21 C21           -2.2773    -0.8006    -0.6021 C.3     
  22 C22           -0.7508    -2.3729     0.5980 C.3     
  23 C23           -1.7311    -0.4176     1.8057 C.3     
  24 H24            1.7855    -0.4309     1.9484 H       
  25 H25            3.1710    -0.8014     0.8942 H       
  26 H26            1.1710    -1.8027    -0.0775 H       
  27 H27            1.9331     0.7657    -1.5401 H       
  28 H28            2.8041    -0.7833    -1.6403 H       
  29 H29            1.1460    -0.6521    -2.2739 H       
  30 H30            4.6995     4.7183     2.4662 H       
  31 H31            5.1867     0.9588     4.4282 H       
  32 H32            3.6599    -0.0883     2.8056 H       
  33 H33           -1.8889    -1.1529    -1.5577 H       
  34 H34           -3.1332    -1.4095    -0.3111 H       
  35 H35           -2.5873     0.2400    -0.6973 H       
  36 H36            0.0267    -2.4523     1.3578 H       
  37 H37           -1.6067    -2.9818     0.8890 H       
  38 H38           -0.3623    -2.7251    -0.3576 H       
  39 H39           -2.0411     0.6230     1.7104 H       
  40 H40           -2.5871    -1.0266     2.0967 H       
  41 H41           -0.9536    -0.4971     2.5654 H       
@<TRIPOS>BOND
   1    1    2 am
   2    1    3 ar
   3    1    4 ar
   4    2    6 1
   5    2   20 1
   6    5    6 1
   7    5    8 1
   8    5   24 1
   9    5   25 1
  10    6    7 1
  11    6   26 1
  12    7   27 1
  13    7   28 1
  14    7   29 1
  15    8    9 1
  16    9   10 ar
  17    9   14 ar
  18   10   11 ar
  19   10   15 1
  20   11   12 ar
  21   11   30 1
  22   12   13 ar
  23   12   19 1
  24   13   14 ar
  25   13   31 1
  26   14   32 1
  27   15   16 1
  28   15   17 1
  29   15   18 1
  30   20   21 1
  31   20   23 1
  32   20   22 1
  33   21   33 1
  34   21   34 1
  35   21   35 1
  36   22   36 1
  37   22   37 1
  38   22   38 1
  39   23   39 1
  40   23   40 1
  41   23   41 1

#	End of record

