#	Name: ASD01913349
#	Creating user name:	WinNT
#	Creation time:	15. 06. 2019 20:01

#	Modifying user name:	WinNT
#	Modification time:	15. 06. 2019 20:01

#	Program:	/corina/corina34_cracker 3.40 0067  02.08.2006

@<TRIPOS>MOLECULE
ASD01913349
  37   39    0    0    0
SMALL
NO_CHARGES


@<TRIPOS>ATOM
   1 C1            -0.0166     1.3765     0.0096 C.2     
   2 C2             0.0021    -0.0041     0.0020 C.2     
   3 C3             1.2499    -0.6727    -0.0135 C.2     
   4 N4             2.3635     0.0159    -0.0204 N.2     
   5 C5             2.3515     1.3566    -0.0131 C.2     
   6 N6             1.1686     2.0507     0.0019 N.pl3   
   7 C7             3.3712     2.2994    -0.0170 C.2     
   8 C8             2.7832     3.5557    -0.0042 C.2     
   9 N9             1.4769     3.4160     0.0071 N.2     
  10 C10            3.5232     4.8685    -0.0026 C.3     
  11 C11           -1.2215    -0.7480     0.0102 C.1     
  12 C12           -2.2246    -1.3579     0.0169 C.1     
  13 C13           -3.4482    -2.1018     0.0250 C.ar    
  14 C14           -3.4303    -3.4984     0.0174 C.ar    
  15 N15           -4.5557    -4.1824     0.0248 N.ar    
  16 C16           -5.7336    -3.5866     0.0397 C.ar    
  17 C17           -5.8363    -2.2050     0.0481 C.ar    
  18 C18           -4.6843    -1.4406     0.0467 C.ar    
  19 C19            4.0868     5.1380    -1.3993 C.3     
  20 C20            2.5632     5.9946     0.3860 C.3     
  21 C21            4.6711     4.8057     1.0071 C.3     
  22 Cl22          -7.1777    -4.5500     0.0482 Cl      
  23 H23           -0.9539     1.9131     0.0170 H       
  24 H24            1.2833    -1.7522    -0.0192 H       
  25 H25            4.4310     2.0918    -0.0278 H       
  26 H26           -2.4857    -4.0217     0.0048 H       
  27 H27           -6.8062    -1.7300     0.0602 H       
  28 H28           -4.7353    -0.3619     0.0535 H       
  29 H29            3.2690     5.1827    -2.1186 H       
  30 H30            4.6220     6.0875    -1.3981 H       
  31 H31            4.7707     4.3357    -1.6761 H       
  32 H32            2.1617     5.8026     1.3811 H       
  33 H33            3.0984     6.9441     0.3872 H       
  34 H34            1.7454     6.0393    -0.3333 H       
  35 H35            5.3550     4.0034     0.7302 H       
  36 H36            5.2063     5.7552     1.0083 H       
  37 H37            4.2696     4.6136     2.0021 H       
@<TRIPOS>BOND
   1    1    2 2
   2    1    6 1
   3    1   23 1
   4    2    3 1
   5    2   11 1
   6    3    4 2
   7    3   24 1
   8    4    5 1
   9    5    6 1
  10    5    7 2
  11    6    9 1
  12    7    8 1
  13    7   25 1
  14    8    9 2
  15    8   10 1
  16   10   19 1
  17   10   20 1
  18   10   21 1
  19   11   12 3
  20   12   13 1
  21   13   14 ar
  22   13   18 ar
  23   14   15 ar
  24   14   26 1
  25   15   16 ar
  26   16   17 ar
  27   16   22 1
  28   17   18 ar
  29   17   27 1
  30   18   28 1
  31   19   29 1
  32   19   30 1
  33   19   31 1
  34   20   32 1
  35   20   33 1
  36   20   34 1
  37   21   35 1
  38   21   36 1
  39   21   37 1

#	End of record

