#	Name: ASD08170300
#	Creating user name:	WinNT
#	Creation time:	15. 06. 2019 21:17

#	Modifying user name:	WinNT
#	Modification time:	15. 06. 2019 21:17

#	Program:	/corina/corina34_cracker 3.40 0067  02.08.2006

@<TRIPOS>MOLECULE
ASD08170300
  66   69    0    0    0
SMALL
NO_CHARGES


@<TRIPOS>ATOM
   1 C1            -0.0162     1.3436     0.0094 C.2     
   2 N2             0.0021    -0.0041     0.0020 N.am    
   3 C3             1.2158    -0.6830    -0.0132 C.2     
   4 S4             1.4076    -2.3853    -0.0242 S.3     
   5 C5             3.1580    -2.1679    -0.0404 C.2     
   6 C6             4.1900    -3.2660    -0.0570 C.3     
   7 C7             5.9649    -5.1406     2.7999 C.3     
   8 C8             6.9968    -6.2387     2.7833 C.2     
   9 S9             6.6713    -7.9723     2.7767 S.3     
  10 C10            8.3583    -8.2694     2.7582 C.2     
  11 N11            2.3916    -0.1314    -0.0272 N.2     
  12 N12            3.3971    -0.8949    -0.0360 N.2     
  13 N13            8.2821    -6.0790     2.7658 N.2     
  14 N14            8.9817    -7.1299     2.7585 N.2     
  15 O15            1.0258     1.9642     0.0028 O.2     
  16 C16           -1.3314     2.0792     0.0197 C.3     
  17 C17            4.5536    -3.6458     1.3798 C.3     
  18 C18            5.6013    -4.7607     1.3631 C.3     
  19 N19            8.9606    -9.5229     2.7455 N.am    
  20 C20           10.3044    -9.6248     2.7315 C.2     
  21 C21           10.9570   -10.9831     2.7177 C.3     
  22 O22           10.9885    -8.6233     2.7299 O.2     
  23 C23           -1.0722     3.5871     0.0266 C.3     
  24 C24           12.4780   -10.8180     2.7033 C.3     
  25 C25           13.1313   -12.1715     2.8134 C.ar    
  26 O26           12.8779   -10.1940     1.4815 O.3     
  27 C27           13.5257   -12.6503     4.0488 C.ar    
  28 C28           13.3311   -12.9368     1.6797 C.ar    
  29 C29           13.9303   -14.1785     1.7806 C.ar    
  30 C30           14.3302   -14.6546     3.0153 C.ar    
  31 C31           14.1249   -13.8919     4.1497 C.ar    
  32 O32           -0.4246     3.9535     1.2466 O.3     
  33 C33           -2.3827     4.3225    -0.0870 C.ar    
  34 C34           -2.8361     4.7398    -1.3244 C.ar    
  35 C35           -3.1341     4.5750     1.0455 C.ar    
  36 C36           -4.3361     5.2496     0.9413 C.ar    
  37 C37           -4.7866     5.6722    -0.2954 C.ar    
  38 C38           -4.0381     5.4144    -1.4286 C.ar    
  39 H39           -0.8313    -0.5005     0.0073 H       
  40 H40            3.7851    -4.1373    -0.5717 H       
  41 H41            5.0822    -2.9183    -0.5777 H       
  42 H42            5.0727    -5.4882     3.3206 H       
  43 H43            6.3698    -4.2692     3.3146 H       
  44 H44           -1.9035     1.8130    -0.8691 H       
  45 H45           -1.8951     1.8033     0.9108 H       
  46 H46            4.9585    -2.7745     1.8946 H       
  47 H47            3.6614    -3.9935     1.9006 H       
  48 H48            6.4935    -4.4131     0.8423 H       
  49 H49            5.1964    -5.6320     0.8483 H       
  50 H50            8.4135   -10.3239     2.7467 H       
  51 H51           10.6602   -11.5378     3.6077 H       
  52 H52           10.6423   -11.5284     1.8279 H       
  53 H53           -0.4338     3.8499    -0.8168 H       
  54 H54           12.7841   -10.1973     3.5454 H       
  55 H55           12.6375   -10.6922     0.6884 H       
  56 H56           13.3659   -12.0541     4.9350 H       
  57 H57           13.0187   -12.5649     0.7151 H       
  58 H58           14.0857   -14.7767     0.8950 H       
  59 H59           14.7980   -15.6248     3.0942 H       
  60 H60           14.4373   -14.2639     5.1143 H       
  61 H61           -0.9368     3.7483     2.0408 H       
  62 H62           -2.2510     4.5390    -2.2097 H       
  63 H63           -2.7821     4.2448     2.0117 H       
  64 H64           -4.9235     5.4462     1.8260 H       
  65 H65           -5.7259     6.1989    -0.3768 H       
  66 H66           -4.3901     5.7445    -2.3948 H       
@<TRIPOS>BOND
   1    1    2 am
   2    1   15 2
   3    1   16 1
   4    2    3 1
   5    2   39 1
   6    3    4 1
   7    3   11 2
   8    4    5 1
   9    5    6 1
  10    5   12 2
  11    6   17 1
  12    6   40 1
  13    6   41 1
  14    7    8 1
  15    7   18 1
  16    7   42 1
  17    7   43 1
  18    8    9 1
  19    8   13 2
  20    9   10 1
  21   10   19 1
  22   10   14 2
  23   11   12 1
  24   13   14 1
  25   16   23 1
  26   16   44 1
  27   16   45 1
  28   17   18 1
  29   17   46 1
  30   17   47 1
  31   18   48 1
  32   18   49 1
  33   19   20 am
  34   19   50 1
  35   20   21 1
  36   20   22 2
  37   21   24 1
  38   21   51 1
  39   21   52 1
  40   23   32 1
  41   23   33 1
  42   23   53 1
  43   24   25 1
  44   24   26 1
  45   24   54 1
  46   25   27 ar
  47   25   28 ar
  48   26   55 1
  49   27   31 ar
  50   27   56 1
  51   28   29 ar
  52   28   57 1
  53   29   30 ar
  54   29   58 1
  55   30   31 ar
  56   30   59 1
  57   31   60 1
  58   32   61 1
  59   33   34 ar
  60   33   35 ar
  61   34   38 ar
  62   34   62 1
  63   35   36 ar
  64   35   63 1
  65   36   37 ar
  66   36   64 1
  67   37   38 ar
  68   37   65 1
  69   38   66 1

#	End of record

