#	Name: ASD01912085
#	Creating user name:	WinNT
#	Creation time:	15. 06. 2019 19:59

#	Modifying user name:	WinNT
#	Modification time:	15. 06. 2019 19:59

#	Program:	/corina/corina34_cracker 3.40 0067  02.08.2006

@<TRIPOS>MOLECULE
ASD01912085
  63   67    0    0    0
SMALL
NO_CHARGES


@<TRIPOS>ATOM
   1 C1            -0.0048     1.4156     0.0522 C.2     
   2 C2            -0.0091     0.0108     0.0264 C.2     
   3 N3             1.2383    -0.4056    -0.0382 N.2     
   4 N4             2.0784     0.7149    -0.0558 N.pl3   
   5 C5             1.2942     1.8290     0.0006 C.2     
   6 C6             1.7663     3.2316     0.0045 C.ar    
   7 C7             3.0187     3.5505    -0.5207 C.ar    
   8 C8             3.4532     4.8601    -0.5141 C.ar    
   9 C9             2.6498     5.8559     0.0120 C.ar    
  10 C10            1.4068     5.5460     0.5344 C.ar    
  11 C11            0.9585     4.2411     0.5283 C.ar    
  12 C12           -1.2138    -0.8556     0.0654 C.ar    
  13 C13           -1.0786    -2.2417     0.0336 C.ar    
  14 C14           -2.2013    -3.0435     0.0705 C.ar    
  15 C15           -3.4611    -2.4719     0.1391 C.ar    
  16 C16           -3.6001    -1.0936     0.1704 C.ar    
  17 C17           -2.4828    -0.2848     0.1397 C.ar    
  18 C18           -2.0563    -4.5431     0.0356 C.3     
  19 F19           -4.5576    -3.2604     0.1750 F       
  20 C20            3.5418     0.6936    -0.1223 C.3     
  21 C21            3.9777     0.5824    -1.5605 C.2     
  22 N22            5.2899     0.5452    -1.8660 N.am    
  23 O23            3.1478     0.5264    -2.4432 O.2     
  24 C24            5.7370     0.4369    -3.2630 C.3     
  25 C25            6.7652     1.5409    -3.5320 C.3     
  26 N26            7.8360     1.4631    -2.5293 N.3     
  27 C27            7.3183     1.7088    -1.1767 C.3     
  28 C28            6.3128     0.6179    -0.8116 C.3     
  29 C29            8.8663     2.3395    -2.8337 C.ar    
  30 N30            9.9188     2.4012    -2.0323 N.ar    
  31 C31           10.9205     3.2254    -2.2920 C.ar    
  32 C32           10.8575     4.0322    -3.4223 C.ar    
  33 C33            9.7371     3.9401    -4.2401 C.ar    
  34 N34            8.7752     3.0896    -3.9213 N.ar    
  35 O35           11.8683     4.8920    -3.7210 O.3     
  36 C36           11.7198     5.6828    -4.9019 C.3     
  37 H37           -0.8746     2.0540     0.0997 H       
  38 H38            3.6469     2.7739    -0.9313 H       
  39 H39            4.4228     5.1082    -0.9201 H       
  40 H40            2.9945     6.8794     0.0153 H       
  41 H41            0.7842     6.3278     0.9437 H       
  42 H42           -0.0120     4.0004     0.9364 H       
  43 H43           -0.0967    -2.6882    -0.0202 H       
  44 H44           -4.5842    -0.6519     0.2235 H       
  45 H45           -2.5920     0.7894     0.1642 H       
  46 H46           -1.9739    -4.9239     1.0536 H       
  47 H47           -2.9300    -4.9815    -0.4466 H       
  48 H48           -1.1602    -4.8086    -0.5253 H       
  49 H49            3.9384     1.6135     0.3075 H       
  50 H50            3.9186    -0.1615     0.4388 H       
  51 H51            6.1957    -0.5383    -3.4261 H       
  52 H52            4.8844     0.5600    -3.9309 H       
  53 H53            7.1889     1.4086    -4.5275 H       
  54 H54            6.2786     2.5142    -3.4697 H       
  55 H55            8.1430     1.6983    -0.4641 H       
  56 H56            6.8239     2.6798    -1.1472 H       
  57 H57            5.8419     0.8581     0.1416 H       
  58 H58            6.8241    -0.3420    -0.7390 H       
  59 H59           11.7759     3.2712    -1.6343 H       
  60 H60            9.6548     4.5520    -5.1263 H       
  61 H61           11.6266     5.0281    -5.7684 H       
  62 H62           10.8258     6.3005    -4.8155 H       
  63 H63           12.5935     6.3232    -5.0227 H       
@<TRIPOS>BOND
   1    1    2 1
   2    1    5 2
   3    1   37 1
   4    2    3 2
   5    2   12 1
   6    3    4 1
   7    4    5 1
   8    4   20 1
   9    5    6 1
  10    6    7 ar
  11    6   11 ar
  12    7    8 ar
  13    7   38 1
  14    8    9 ar
  15    8   39 1
  16    9   10 ar
  17    9   40 1
  18   10   11 ar
  19   10   41 1
  20   11   42 1
  21   12   13 ar
  22   12   17 ar
  23   13   14 ar
  24   13   43 1
  25   14   15 ar
  26   14   18 1
  27   15   16 ar
  28   15   19 1
  29   16   17 ar
  30   16   44 1
  31   17   45 1
  32   18   46 1
  33   18   47 1
  34   18   48 1
  35   20   21 1
  36   20   49 1
  37   20   50 1
  38   21   22 am
  39   21   23 2
  40   22   24 1
  41   22   28 1
  42   24   25 1
  43   24   51 1
  44   24   52 1
  45   25   26 1
  46   25   53 1
  47   25   54 1
  48   26   27 1
  49   26   29 1
  50   27   28 1
  51   27   55 1
  52   27   56 1
  53   28   57 1
  54   28   58 1
  55   29   30 ar
  56   29   34 ar
  57   30   31 ar
  58   31   32 ar
  59   31   59 1
  60   32   33 ar
  61   32   35 1
  62   33   34 ar
  63   33   60 1
  64   35   36 1
  65   36   61 1
  66   36   62 1
  67   36   63 1

#	End of record

