#	Name: ASD03240473
#	Creating user name:	WinNT
#	Creation time:	15. 06. 2019 20:35

#	Modifying user name:	WinNT
#	Modification time:	15. 06. 2019 20:35

#	Program:	/corina/corina34_cracker 3.40 0067  02.08.2006

@<TRIPOS>MOLECULE
ASD03240473
  45   48    0    0    0
SMALL
NO_CHARGES


@<TRIPOS>ATOM
   1 C1             0.0292     1.4697     0.0794 C.ar    
   2 C2            -2.5260     0.3102     1.2782 C.ar    
   3 C3            -2.1636     1.6419     1.1848 C.ar    
   4 C4            -1.3320     2.1136     0.0199 C.3     
   5 C5            -3.2875    -0.1273     2.3429 C.ar    
   6 C6            -3.6914     0.7754     3.3248 C.ar    
   7 C7            -3.3238     2.1160     3.2253 C.ar    
   8 C8            -2.5621     2.5423     2.1563 C.ar    
   9 C9            -4.5103     0.3112     4.4713 C.2     
  10 C10           -5.6520    -0.4394     4.4347 C.2     
  11 N11           -6.0524    -0.6212     5.7082 N.pl3   
  12 N12           -5.2597    -0.0491     6.5383 N.2     
  13 C13           -4.2730     0.5495     5.9008 C.2     
  14 C14            0.9155     1.8191     1.0811 C.ar    
  15 C15            0.3889     0.5258    -0.8643 C.ar    
  16 C16            1.6349    -0.0696    -0.8066 C.ar    
  17 C17            2.5224     0.2796     0.1957 C.ar    
  18 C18            2.1620     1.2247     1.1397 C.ar    
  19 Cl19           4.0873    -0.4682     0.2693 Cl      
  20 C20           -1.1811     3.6360     0.0821 C.3     
  21 C21           -0.3877     4.1153    -1.1357 C.3     
  22 N22           -1.0910     3.7250    -2.3643 N.3     
  23 C23           -1.2061     2.2648    -2.4692 C.3     
  24 C24           -2.0231     1.7289    -1.2912 C.3     
  25 C25           -3.1950     1.2905     6.4834 C.1     
  26 N26           -2.3398     1.8783     6.9456 N.1     
  27 H27           -2.2162    -0.3876     0.5143 H       
  28 H28           -3.5702    -1.1672     2.4147 H       
  29 H29           -3.6343     2.8199     3.9832 H       
  30 H30           -2.2763     3.5809     2.0783 H       
  31 H31           -6.1423    -0.8165     3.5493 H       
  32 H32           -6.8423    -1.1221     5.9653 H       
  33 H33            0.6341     2.5569     1.8179 H       
  34 H34           -0.3039     0.2533    -1.6467 H       
  35 H35            1.9156    -0.8076    -1.5435 H       
  36 H36            2.8544     1.4980     1.9221 H       
  37 H37           -2.1675     4.0999     0.0793 H       
  38 H38           -0.6510     3.9122     0.9935 H       
  39 H39           -0.2908     5.2005    -1.1018 H       
  40 H40            0.6034     3.6618    -1.1249 H       
  41 H41           -1.9981     4.1639    -2.4167 H       
  42 H42           -1.7035     2.0059    -3.4038 H       
  43 H43           -0.2111     1.8199    -2.4521 H       
  44 H44           -2.0945     0.6435    -1.3618 H       
  45 H45           -3.0230     2.1622    -1.3148 H       
@<TRIPOS>BOND
   1    1   14 ar
   2    1   15 ar
   3    1    4 1
   4    2    3 ar
   5    2    5 ar
   6    2   27 1
   7    3    4 1
   8    3    8 ar
   9    4   20 1
  10    4   24 1
  11    5    6 ar
  12    5   28 1
  13    6    7 ar
  14    6    9 1
  15    7    8 ar
  16    7   29 1
  17    8   30 1
  18    9   10 2
  19    9   13 1
  20   10   11 1
  21   10   31 1
  22   11   12 1
  23   11   32 1
  24   12   13 2
  25   13   25 1
  26   14   18 ar
  27   14   33 1
  28   15   16 ar
  29   15   34 1
  30   16   17 ar
  31   16   35 1
  32   17   18 ar
  33   17   19 1
  34   18   36 1
  35   20   21 1
  36   20   37 1
  37   20   38 1
  38   21   22 1
  39   21   39 1
  40   21   40 1
  41   22   23 1
  42   22   41 1
  43   23   24 1
  44   23   42 1
  45   23   43 1
  46   24   44 1
  47   24   45 1
  48   25   26 3

#	End of record

