#	Name: ASD09740668
#	Creating user name:	WinNT
#	Creation time:	15. 06. 2019 21:23

#	Modifying user name:	WinNT
#	Modification time:	15. 06. 2019 21:23

#	Program:	/corina/corina34_cracker 3.40 0067  02.08.2006

@<TRIPOS>MOLECULE
ASD09740668
  56   58    0    0    0
SMALL
NO_CHARGES


@<TRIPOS>ATOM
   1 C1            -0.0162     1.3436     0.0094 C.2     
   2 N2             0.0021    -0.0041     0.0020 N.am    
   3 O3             1.0277     1.9654     0.0028 O.2     
   4 O4            -1.1912     2.0008     0.0186 O.3     
   5 C5             1.2806    -0.7192    -0.0140 C.3     
   6 C6             1.1133    -2.1289     0.5918 C.3     
   7 C7             0.8205    -2.9913    -0.6544 C.3     
   8 C8             1.4703    -2.2553    -1.8063 C.ar    
   9 C9             1.8070    -2.6968    -3.0875 C.ar    
  10 C10            2.4074    -1.8218    -3.9894 C.ar    
  11 C11            2.6673    -0.5201    -3.6123 C.ar    
  12 C12            2.3329    -0.0869    -2.3430 C.ar    
  13 C13            1.7345    -0.9520    -1.4395 C.ar    
  14 O14            1.7850    -4.7997    -4.7747 O.3     
  15 B15            1.5095    -4.1791    -3.5109 Du      
  16 O16            0.9029    -5.2099    -2.7185 O.3     
  17 C17            1.6440    -6.4047    -3.0441 C.3     
  18 C18            2.2421    -6.1266    -4.4382 C.3     
  19 C19            1.7202    -7.1439    -5.4548 C.3     
  20 C20            3.7705    -6.1652    -4.3800 C.3     
  21 C21            2.7589    -6.6356    -2.0221 C.3     
  22 C22            0.7087    -7.6144    -3.0969 C.3     
  23 C23           -1.1349     3.4517     0.0262 C.3     
  24 C24           -0.4003     3.9401    -1.2239 C.3     
  25 C25           -2.5565     4.0172     0.0360 C.3     
  26 C26           -0.3885     3.9266     1.2745 C.3     
  27 H27           -0.8313    -0.5005     0.0073 H       
  28 H28            2.0356    -0.1581     0.5365 H       
  29 H29            2.0326    -2.4526     1.0799 H       
  30 H30            0.2742    -2.1550     1.2870 H       
  31 H31            1.2616    -3.9816    -0.5413 H       
  32 H32           -0.2546    -3.0713    -0.8150 H       
  33 H33            2.6690    -2.1611    -4.9808 H       
  34 H34            3.1327     0.1608    -4.3095 H       
  35 H35            2.5393     0.9327    -2.0528 H       
  36 H36            2.1058    -6.8992    -6.4445 H       
  37 H37            2.0523    -8.1429    -5.1724 H       
  38 H38            0.6307    -7.1145    -5.4719 H       
  39 H39            4.1241    -5.4468    -3.6405 H       
  40 H40            4.0982    -7.1663    -4.0998 H       
  41 H41            4.1779    -5.9100    -5.3583 H       
  42 H42            2.3223    -6.7729    -1.0329 H       
  43 H43            3.3245    -7.5260    -2.2964 H       
  44 H44            3.4242    -5.7723    -2.0089 H       
  45 H45           -0.0692    -7.4400    -3.8403 H       
  46 H46            1.2786    -8.5027    -3.3689 H       
  47 H47            0.2502    -7.7621    -2.1191 H       
  48 H48           -0.9321     3.6018    -2.1132 H       
  49 H49           -0.3581     5.0293    -1.2182 H       
  50 H50            0.6125     3.5373    -1.2309 H       
  51 H51           -3.0798     3.6692     0.9266 H       
  52 H52           -2.5142     5.1064     0.0417 H       
  53 H53           -3.0883     3.6789    -0.8533 H       
  54 H54            0.6243     3.5237     1.2675 H       
  55 H55           -0.3462     5.0157     1.2802 H       
  56 H56           -0.9118     3.5786     2.1651 H       
@<TRIPOS>BOND
   1    1    2 am
   2    1    3 2
   3    1    4 1
   4    2    5 1
   5    2   27 1
   6    4   23 1
   7    5    6 1
   8    5   13 1
   9    5   28 1
  10    6    7 1
  11    6   29 1
  12    6   30 1
  13    7    8 1
  14    7   31 1
  15    7   32 1
  16    8    9 ar
  17    8   13 ar
  18    9   10 ar
  19    9   15 1
  20   10   11 ar
  21   10   33 1
  22   11   12 ar
  23   11   34 1
  24   12   13 ar
  25   12   35 1
  26   14   15 1
  27   14   18 1
  28   15   16 1
  29   16   17 1
  30   17   18 1
  31   17   21 1
  32   17   22 1
  33   18   19 1
  34   18   20 1
  35   19   36 1
  36   19   37 1
  37   19   38 1
  38   20   39 1
  39   20   40 1
  40   20   41 1
  41   21   42 1
  42   21   43 1
  43   21   44 1
  44   22   45 1
  45   22   46 1
  46   22   47 1
  47   23   24 1
  48   23   26 1
  49   23   25 1
  50   24   48 1
  51   24   49 1
  52   24   50 1
  53   25   51 1
  54   25   52 1
  55   25   53 1
  56   26   54 1
  57   26   55 1
  58   26   56 1

#	End of record

