#	Name: ASD01850003
#	Creating user name:	WinNT
#	Creation time:	15. 06. 2019 19:38

#	Modifying user name:	WinNT
#	Modification time:	15. 06. 2019 19:38

#	Program:	/corina/corina34_cracker 3.40 0067  02.08.2006

@<TRIPOS>MOLECULE
ASD01850003
  27   28    0    0    0
SMALL
NO_CHARGES


@<TRIPOS>ATOM
   1 O1            -0.6238     1.1638     0.9737 O.2     
   2 C2             0.0824     1.1388    -0.0151 C.2     
   3 C3             1.3327     1.9269    -0.0506 C.ar    
   4 C4             1.2869     3.3054    -0.2446 C.ar    
   5 C5             2.4588     4.0379    -0.2765 C.ar    
   6 C6             3.6815     3.4107    -0.1169 C.ar    
   7 C7             3.7469     2.0431     0.0767 C.ar    
   8 C8             2.5774     1.2893     0.1172 C.ar    
   9 C9             2.6419    -0.1730     0.3239 C.2     
  10 O10            1.6187    -0.8125     0.4625 O.2     
  11 O11            3.8356    -0.7963     0.3586 O.3     
  12 C12           -0.3055     0.3162    -1.1791 C.ar    
  13 C13           -1.4231    -0.5190    -1.1070 C.ar    
  14 C14           -1.7793    -1.2843    -2.1977 C.ar    
  15 C15           -1.0327    -1.2262    -3.3615 C.ar    
  16 C16            0.0758    -0.4014    -3.4398 C.ar    
  17 C17            0.4401     0.3741    -2.3591 C.ar    
  18 H18            0.3360     3.8018    -0.3703 H       
  19 H19            2.4195     5.1066    -0.4275 H       
  20 H20            4.5908     3.9929    -0.1440 H       
  21 H21            4.7051     1.5604     0.2002 H       
  22 H22            3.8273    -1.7534     0.4962 H       
  23 H23           -2.0064    -0.5656    -0.1993 H       
  24 H24           -2.6428    -1.9307    -2.1433 H       
  25 H25           -1.3163    -1.8277    -4.2125 H       
  26 H26            0.6541    -0.3612    -4.3511 H       
  27 H27            1.3055     1.0174    -2.4216 H       
@<TRIPOS>BOND
   1    1    2 2
   2    2    3 1
   3    2   12 1
   4    3    4 ar
   5    3    8 ar
   6    4    5 ar
   7    4   18 1
   8    5    6 ar
   9    5   19 1
  10    6    7 ar
  11    6   20 1
  12    7    8 ar
  13    7   21 1
  14    8    9 1
  15    9   10 2
  16    9   11 1
  17   11   22 1
  18   12   13 ar
  19   12   17 ar
  20   13   14 ar
  21   13   23 1
  22   14   15 ar
  23   14   24 1
  24   15   16 ar
  25   15   25 1
  26   16   17 ar
  27   16   26 1
  28   17   27 1

#	End of record

