#	Name: ASD01810911
#	Creating user name:	WinNT
#	Creation time:	15. 06. 2019 19:25

#	Modifying user name:	WinNT
#	Modification time:	15. 06. 2019 19:25

#	Program:	/corina/corina34_cracker 3.40 0067  02.08.2006

@<TRIPOS>MOLECULE
ASD01810911
  18   18    0    0    0
SMALL
NO_CHARGES


@<TRIPOS>ATOM
   1 C1            -0.0098     1.4711     0.0875 C.2     
   2 C2             0.0060    -0.0047     0.0396 C.ar    
   3 C3             1.2139    -0.6883    -0.1185 C.ar    
   4 C4             1.2225    -2.0662    -0.1626 C.ar    
   5 C5             0.0365    -2.7732    -0.0505 C.ar    
   6 C6            -1.1650    -2.1012     0.1060 C.ar    
   7 C7            -1.1858    -0.7228     0.1579 C.ar    
   8 O8             1.0356     2.0898     0.0949 O.2     
   9 O9            -1.1836     2.1315     0.1174 O.3     
  10 C10            2.5052     0.0790    -0.2412 C.3     
  11 I11           -2.9527    -3.1808     0.2732 I       
  12 Cl12           0.0557    -4.5082    -0.1070 Cl      
  13 H13            2.1559    -2.5956    -0.2852 H       
  14 H14           -2.1222    -0.2000     0.2848 H       
  15 H15           -1.1434     3.0971     0.1484 H       
  16 H16            2.8702     0.3371     0.7529 H       
  17 H17            3.2461    -0.5359    -0.7520 H       
  18 H18            2.3331     0.9908    -0.8131 H       
@<TRIPOS>BOND
   1    1    2 1
   2    1    8 2
   3    1    9 1
   4    2    3 ar
   5    2    7 ar
   6    3    4 ar
   7    3   10 1
   8    4    5 ar
   9    4   13 1
  10    5    6 ar
  11    5   12 1
  12    6    7 ar
  13    6   11 1
  14    7   14 1
  15    9   15 1
  16   10   16 1
  17   10   17 1
  18   10   18 1

#	End of record

