#	Name: ASD07931080
#	Creating user name:	WinNT
#	Creation time:	15. 06. 2019 21:13

#	Modifying user name:	WinNT
#	Modification time:	15. 06. 2019 21:13

#	Program:	/corina/corina34_cracker 3.40 0067  02.08.2006

@<TRIPOS>MOLECULE
ASD07931080
  53   58    0    0    0
SMALL
NO_CHARGES


@<TRIPOS>ATOM
   1 N1            -0.0161     1.3386     0.0094 N.pl3   
   2 C2             0.0021    -0.0041     0.0020 C.2     
   3 C3             1.1793    -0.7101    -0.0125 C.2     
   4 C4             2.4649     0.0245    -0.0208 C.2     
   5 C5             2.3994     1.4984    -0.0142 C.ar    
   6 C6             3.5528     2.2766    -0.0218 C.ar    
   7 C7             3.4490     3.6522    -0.0158 C.ar    
   8 C8             2.2021     4.2571    -0.0020 C.ar    
   9 C9             1.0517     3.4965     0.0061 C.ar    
  10 C10            1.1343     2.1082     0.0025 C.ar    
  11 N11            2.8980    -2.1587    -0.0347 N.am    
  12 N12            3.4184    -0.8621    -0.0335 N.2     
  13 C13            1.5480    -2.1223    -0.0223 C.2     
  14 O14            0.7891    -3.0779    -0.0198 O.2     
  15 C15           -1.3130     2.0200     0.0191 C.3     
  16 C16           -1.8193     3.5863     3.4225 C.ar    
  17 C17           -1.4023     3.4083     2.1168 C.ar    
  18 C18           -1.7510     2.2460     1.4432 C.ar    
  19 C19           -2.5103     1.2994     2.1084 C.ar    
  20 C20           -2.8966     1.5443     3.4245 C.ar    
  21 N21           -2.5420     2.6687     4.0331 N.ar    
  22 N22           -4.9066    -0.4522     5.6932 N.pl3   
  23 N23           -4.7910    -1.3216     4.6018 N.2     
  24 C24           -4.0779    -0.7355     3.6773 C.2     
  25 C25           -3.7107     0.5397     4.1513 C.2     
  26 C26           -4.2403     0.6817     5.4016 C.2     
  27 C27           -5.6325    -0.7261     6.9358 C.3     
  28 C28            3.6668    -3.3295    -0.0475 C.ar    
  29 C29            4.6177    -3.5284    -1.0432 C.ar    
  30 C30            5.3744    -4.6857    -1.0519 C.ar    
  31 C31            5.1859    -5.6437    -0.0723 C.ar    
  32 C32            4.2411    -5.4482     0.9179 C.ar    
  33 C33            3.4857    -4.2915     0.9366 C.ar    
  34 F34            4.8013    -2.5927    -2.0003 F       
  35 H35           -0.9340    -0.5427     0.0080 H       
  36 H36            4.5248     1.8059    -0.0319 H       
  37 H37            4.3420     4.2595    -0.0217 H       
  38 H38            2.1307     5.3347     0.0030 H       
  39 H39            0.0858     3.9794     0.0176 H       
  40 H40           -1.2230     2.9797    -0.4899 H       
  41 H41           -2.0510     1.4040    -0.4946 H       
  42 H42           -1.5458     4.4877     3.9509 H       
  43 H43           -0.8107     4.1665     1.6254 H       
  44 H44           -2.7997     0.3837     1.6141 H       
  45 H45           -3.8153    -1.1553     2.7176 H       
  46 H46           -4.1430     1.5466     6.0410 H       
  47 H47           -4.9596    -1.1946     7.6540 H       
  48 H48           -6.0111     0.2088     7.3490 H       
  49 H49           -6.4670    -1.3961     6.7290 H       
  50 H50            6.1127    -4.8418    -1.8245 H       
  51 H51            5.7781    -6.5468    -0.0811 H       
  52 H52            4.0965    -6.1989     1.6807 H       
  53 H53            2.7516    -4.1379     1.7138 H       
@<TRIPOS>BOND
   1    1    2 1
   2    1   10 1
   3    1   15 1
   4    2    3 2
   5    2   35 1
   6    3    4 1
   7    3   13 1
   8    4    5 1
   9    4   12 2
  10    5    6 ar
  11    5   10 ar
  12    6    7 ar
  13    6   36 1
  14    7    8 ar
  15    7   37 1
  16    8    9 ar
  17    8   38 1
  18    9   10 ar
  19    9   39 1
  20   11   12 1
  21   11   13 am
  22   11   28 1
  23   13   14 2
  24   15   18 1
  25   15   40 1
  26   15   41 1
  27   16   17 ar
  28   16   21 ar
  29   16   42 1
  30   17   18 ar
  31   17   43 1
  32   18   19 ar
  33   19   20 ar
  34   19   44 1
  35   20   21 ar
  36   20   25 1
  37   22   23 1
  38   22   26 1
  39   22   27 1
  40   23   24 2
  41   24   25 1
  42   24   45 1
  43   25   26 2
  44   26   46 1
  45   27   47 1
  46   27   48 1
  47   27   49 1
  48   28   29 ar
  49   28   33 ar
  50   29   30 ar
  51   29   34 1
  52   30   31 ar
  53   30   50 1
  54   31   32 ar
  55   31   51 1
  56   32   33 ar
  57   32   52 1
  58   33   53 1

#	End of record

