#	Name: ASD03930142
#	Creating user name:	WinNT
#	Creation time:	15. 06. 2019 20:47

#	Modifying user name:	WinNT
#	Modification time:	15. 06. 2019 20:47

#	Program:	/corina/corina34_cracker 3.40 0067  02.08.2006

@<TRIPOS>MOLECULE
ASD03930142
  55   57    0    0    0
SMALL
NO_CHARGES


@<TRIPOS>ATOM
   1 N1            -0.0169     1.3951     0.0097 N.pl3   
   2 N2             0.0021    -0.0041     0.0020 N.2     
   3 C3             1.2415    -0.4101    -0.0120 C.2     
   4 C4             2.0753     0.7311    -0.0138 C.2     
   5 C5             1.2499     1.8386    -0.0000 C.2     
   6 C6             3.5481     0.7382    -0.0271 C.2     
   7 O7             4.1607    -0.3113    -0.0379 O.2     
   8 O8             4.2163     1.9084    -0.0273 O.3     
   9 C9             1.7035    -1.8445    -0.0237 C.3     
  10 F10            0.5947    -2.6907    -0.1327 F       
  11 F11            2.5565    -2.0509    -1.1131 F       
  12 F12            2.3880    -2.1236     1.1640 F       
  13 C13           -1.2174     2.2346     0.0202 C.3     
  14 C14           -4.7290     0.6195    -4.2650 C.3     
  15 C15           -5.2096    -0.7146    -3.6556 C.3     
  16 C16           -4.9943    -0.4852    -2.1446 C.3     
  17 C17           -3.8807     0.5361    -2.0537 C.ar    
  18 C18           -3.0656     0.8829    -0.9891 C.ar    
  19 C19           -2.1021     1.8605    -1.1411 C.ar    
  20 C20           -1.9497     2.4954    -2.3597 C.ar    
  21 C21           -2.7612     2.1507    -3.4226 C.ar    
  22 C22           -3.7283     1.1709    -3.2721 C.ar    
  23 S23           -7.0625    -1.8874    -5.2387 S.o2    
  24 O24           -8.4832    -1.8592    -5.2290 O.2     
  25 O25           -6.3265    -1.3536    -6.3308 O.2     
  26 N26           -6.6264    -0.9416    -3.9512 N.am    
  27 C27           -6.4558    -3.5425    -4.8105 C.3     
  28 C28           -7.1160    -4.0072    -3.5109 C.3     
  29 C29           -6.8018    -4.5194    -5.9360 C.3     
  30 C30            5.6666     1.8394    -0.0408 C.3     
  31 C31            6.2446     3.2560    -0.0389 C.3     
  32 H32            1.5658     2.8713     0.0025 H       
  33 H33           -1.7593     2.0822     0.9536 H       
  34 H34           -0.9290     3.2822    -0.0656 H       
  35 H35           -4.2491     0.4444    -5.2279 H       
  36 H36           -5.5671     1.3071    -4.3787 H       
  37 H37           -4.6004    -1.5452    -4.0121 H       
  38 H38           -5.9037    -0.0948    -1.6879 H       
  39 H39           -4.6956    -1.4146    -1.6597 H       
  40 H40           -3.1846     0.3879    -0.0366 H       
  41 H41           -1.1970     3.2605    -2.4802 H       
  42 H42           -2.6415     2.6471    -4.3743 H       
  43 H43           -7.3091    -0.5379    -3.3927 H       
  44 H44           -5.3745    -3.5099    -4.6773 H       
  45 H45           -8.1973    -4.0399    -3.6441 H       
  46 H46           -6.7514    -5.0017    -3.2536 H       
  47 H47           -6.8695    -3.3112    -2.7091 H       
  48 H48           -6.3315    -4.1883    -6.8619 H       
  49 H49           -6.4372    -5.5139    -5.6788 H       
  50 H50           -7.8831    -4.5521    -6.0692 H       
  51 H51            6.0131     1.3044     0.8434 H       
  52 H52            5.9970     1.3133    -0.9364 H       
  53 H53            5.8981     3.7910    -0.9231 H       
  54 H54            5.9142     3.7820     0.8567 H       
  55 H55            7.3334     3.2042    -0.0490 H       
@<TRIPOS>BOND
   1    1    2 1
   2    1    5 1
   3    1   13 1
   4    2    3 2
   5    3    4 1
   6    3    9 1
   7    4    5 2
   8    4    6 1
   9    5   32 1
  10    6    7 2
  11    6    8 1
  12    8   30 1
  13    9   10 1
  14    9   11 1
  15    9   12 1
  16   13   19 1
  17   13   33 1
  18   13   34 1
  19   14   15 1
  20   14   22 1
  21   14   35 1
  22   14   36 1
  23   15   16 1
  24   15   26 1
  25   15   37 1
  26   16   17 1
  27   16   38 1
  28   16   39 1
  29   17   18 ar
  30   17   22 ar
  31   18   19 ar
  32   18   40 1
  33   19   20 ar
  34   20   21 ar
  35   20   41 1
  36   21   22 ar
  37   21   42 1
  38   23   24 2
  39   23   25 2
  40   23   26 am
  41   23   27 1
  42   26   43 1
  43   27   28 1
  44   27   29 1
  45   27   44 1
  46   28   45 1
  47   28   46 1
  48   28   47 1
  49   29   48 1
  50   29   49 1
  51   29   50 1
  52   30   31 1
  53   30   51 1
  54   30   52 1
  55   31   53 1
  56   31   54 1
  57   31   55 1

#	End of record

