#	Name: ASD09080072
#	Creating user name:	WinNT
#	Creation time:	15. 06. 2019 21:20

#	Modifying user name:	WinNT
#	Modification time:	15. 06. 2019 21:20

#	Program:	/corina/corina34_cracker 3.40 0067  02.08.2006

@<TRIPOS>MOLECULE
ASD09080072
  62   64    0    0    0
SMALL
NO_CHARGES


@<TRIPOS>ATOM
   1 C1             0.4322     1.0755     0.7745 C.ar    
   2 C2             0.3494    -0.2981     0.6531 C.ar    
   3 C3            -0.8916    -0.9276     0.7215 C.ar    
   4 C4            -2.0436    -0.1676     0.9121 C.ar    
   5 C5            -1.9504     1.2054     1.0324 C.ar    
   6 C6            -0.7146     1.8257     0.9690 C.ar    
   7 Cl7            1.9779     1.8613     0.6900 Cl      
   8 Cl8           -3.3849     2.1539     1.2694 Cl      
   9 C9            -0.9862    -2.4028     0.5912 C.ar    
  10 C10           -2.2271    -3.0327     0.6595 C.ar    
  11 C11            0.1651    -3.1626     0.3943 C.ar    
  12 C12            0.0714    -4.5343     0.2738 C.ar    
  13 C13           -1.1625    -5.1549     0.3482 C.ar    
  14 C14           -2.3093    -4.4050     0.5378 C.ar    
  15 C15           -1.2586    -6.6530     0.2159 C.3     
  16 C16           -1.1367    -7.2960     1.5989 C.3     
  17 N17           -2.2839    -6.9052     2.4219 N.am    
  18 C18           -1.1089    -8.8187     1.4527 C.3     
  19 C19           -0.9735    -9.4613     2.8346 C.3     
  20 O20           -2.3212    -9.2605     0.8387 O.3     
  21 O21           -2.0941    -9.0950     3.6421 O.3     
  22 C22           -2.0860    -6.3095     3.6145 C.2     
  23 O23           -0.9598    -6.1661     4.0413 O.2     
  24 C24           -3.2639    -5.8214     4.4177 C.3     
  25 C25           -2.7748    -5.1021     5.6870 C.3     
  26 C26           -4.0648    -4.7838     3.6042 C.3     
  27 C27           -4.5214    -3.7449     4.6583 C.3     
  28 C28           -3.2954    -3.6525     5.6005 C.3     
  29 C29           -0.9279   -10.9606     2.6892 C.2     
  30 O30           -1.8175   -11.6392     3.1453 O.2     
  31 O31            0.1010   -11.5422     2.0528 O.3     
  32 C32            1.3232   -13.4674     1.1986 C.3     
  33 C33            0.0789   -12.9904     1.9502 C.3     
  34 H34            1.2452    -0.8830     0.5050 H       
  35 H35           -3.0079    -0.6510     0.9654 H       
  36 H36           -0.6458     2.8994     1.0635 H       
  37 H37           -3.1231    -2.4481     0.8079 H       
  38 H38            1.1290    -2.6790     0.3358 H       
  39 H39            0.9631    -5.1241     0.1209 H       
  40 H40           -3.2701    -4.8947     0.5954 H       
  41 H41           -2.2198    -6.9180    -0.2245 H       
  42 H42           -0.4537    -7.0136    -0.4246 H       
  43 H43           -0.2160    -6.9599     2.0759 H       
  44 H44           -3.1860    -7.0753     2.1085 H       
  45 H45           -0.2608    -9.1088     0.8325 H       
  46 H46           -0.0553    -9.1142     3.3084 H       
  47 H47           -3.1223    -8.9703     1.2961 H       
  48 H48           -2.9504    -9.3075     3.2463 H       
  49 H49           -3.9049    -6.6607     4.6877 H       
  50 H50           -3.1790    -5.5918     6.5730 H       
  51 H51           -1.6853    -5.1060     5.7220 H       
  52 H52           -3.4284    -4.3128     2.8551 H       
  53 H53           -4.9281    -5.2530     3.1322 H       
  54 H54           -4.7218    -2.7814     4.1896 H       
  55 H55           -5.3978    -4.1025     5.1988 H       
  56 H56           -3.5972    -3.2962     6.5854 H       
  57 H57           -2.5348    -2.9988     5.1738 H       
  58 H58            1.3331   -13.0325     0.1992 H       
  59 H59            2.2165   -13.1551     1.7396 H       
  60 H60            1.3067   -14.5546     1.1216 H       
  61 H61            0.0691   -13.4253     2.9496 H       
  62 H62           -0.8143   -13.3027     1.4092 H       
@<TRIPOS>BOND
   1    1    2 ar
   2    1    7 1
   3    1    6 ar
   4    2    3 ar
   5    2   34 1
   6    3    4 ar
   7    3    9 1
   8    4    5 ar
   9    4   35 1
  10    5    6 ar
  11    5    8 1
  12    6   36 1
  13    9   10 ar
  14    9   11 ar
  15   10   14 ar
  16   10   37 1
  17   11   12 ar
  18   11   38 1
  19   12   13 ar
  20   12   39 1
  21   13   14 ar
  22   13   15 1
  23   14   40 1
  24   15   16 1
  25   15   41 1
  26   15   42 1
  27   16   17 1
  28   16   18 1
  29   16   43 1
  30   17   22 am
  31   17   44 1
  32   18   19 1
  33   18   20 1
  34   18   45 1
  35   19   21 1
  36   19   29 1
  37   19   46 1
  38   20   47 1
  39   21   48 1
  40   22   23 2
  41   22   24 1
  42   24   25 1
  43   24   26 1
  44   24   49 1
  45   25   28 1
  46   25   50 1
  47   25   51 1
  48   26   27 1
  49   26   52 1
  50   26   53 1
  51   27   28 1
  52   27   54 1
  53   27   55 1
  54   28   56 1
  55   28   57 1
  56   29   30 2
  57   29   31 1
  58   31   33 1
  59   32   33 1
  60   32   58 1
  61   32   59 1
  62   32   60 1
  63   33   61 1
  64   33   62 1

#	End of record

