#	Name: ASD01911357
#	Creating user name:	WinNT
#	Creation time:	15. 06. 2019 19:57

#	Modifying user name:	WinNT
#	Modification time:	15. 06. 2019 19:57

#	Program:	/corina/corina34_cracker 3.40 0067  02.08.2006

@<TRIPOS>MOLECULE
ASD01911357
  44   46    0    0    0
SMALL
NO_CHARGES


@<TRIPOS>ATOM
   1 C1            -0.0173     1.4278     0.0099 C.ar    
   2 C2             0.0021    -0.0041     0.0020 C.1     
   3 C3             0.0180    -1.1779    -0.0044 C.1     
   4 C4             0.0374    -2.6098    -0.0123 C.ar    
   5 N5            -1.1126    -3.2811    -0.0049 N.ar    
   6 C6            -1.1402    -4.5954    -0.0108 C.ar    
   7 C7             0.0510    -5.3261    -0.0416 C.ar    
   8 C8             1.2772    -4.6524    -0.0428 C.ar    
   9 C9             1.2645    -3.2820    -0.0334 C.ar    
  10 C10           -2.4537    -5.3334     0.0374 C.3     
  11 C11           -2.3546    -6.6319    -0.7588 C.3     
  12 N12           -1.1812    -7.4046    -0.3572 N.am    
  13 C13           -0.0076    -6.7990    -0.0930 C.2     
  14 O14            0.9941    -7.4601     0.1013 O.2     
  15 C15           -1.2830    -8.8613    -0.2401 C.3     
  16 C16           -0.2934    -9.5207    -1.2028 C.3     
  17 C17           -0.9563    -9.2817     1.1943 C.3     
  18 C18            1.1810     2.1455     0.0023 C.ar    
  19 C19            1.1534     3.5295     0.0095 C.ar    
  20 C20           -0.0620     4.2008     0.0247 C.ar    
  21 C21           -1.2499     3.4923     0.0322 C.ar    
  22 C22           -1.2359     2.1133     0.0194 C.ar    
  23 O23            2.3169     4.2319     0.0022 O.3     
  24 C24            2.2144     5.6572     0.0103 C.3     
  25 H25            2.2092    -5.1980    -0.0549 H       
  26 H26            2.1911    -2.7273    -0.0338 H       
  27 H27           -2.7016    -5.5628     1.0738 H       
  28 H28           -3.2365    -4.7065    -0.3894 H       
  29 H29           -3.2513    -7.2270    -0.5860 H       
  30 H30           -2.2816    -6.3961    -1.8205 H       
  31 H31           -2.2965    -9.1759    -0.4890 H       
  32 H32            0.7201    -9.2061    -0.9538 H       
  33 H33           -0.3691   -10.6046    -1.1156 H       
  34 H34           -0.5261    -9.2212    -2.2247 H       
  35 H35           -1.6613    -8.8119     1.8801 H       
  36 H36           -1.0320   -10.3656     1.2814 H       
  37 H37            0.0572    -8.9671     1.4432 H       
  38 H38            2.1258     1.6224    -0.0088 H       
  39 H39           -0.0798     5.2806     0.0310 H       
  40 H40           -2.1916     4.0208     0.0444 H       
  41 H41           -2.1653     1.5633     0.0253 H       
  42 H42            3.2133     6.0933     0.0032 H       
  43 H43            1.6676     5.9871    -0.8730 H       
  44 H44            1.6842     5.9782     0.9069 H       
@<TRIPOS>BOND
   1    1    2 1
   2    1   18 ar
   3    1   22 ar
   4    2    3 3
   5    3    4 1
   6    4    5 ar
   7    4    9 ar
   8    5    6 ar
   9    6    7 ar
  10    6   10 1
  11    7    8 ar
  12    7   13 1
  13    8    9 ar
  14    8   25 1
  15    9   26 1
  16   10   11 1
  17   10   27 1
  18   10   28 1
  19   11   12 1
  20   11   29 1
  21   11   30 1
  22   12   13 am
  23   12   15 1
  24   13   14 2
  25   15   16 1
  26   15   17 1
  27   15   31 1
  28   16   32 1
  29   16   33 1
  30   16   34 1
  31   17   35 1
  32   17   36 1
  33   17   37 1
  34   18   19 ar
  35   18   38 1
  36   19   20 ar
  37   19   23 1
  38   20   21 ar
  39   20   39 1
  40   21   22 ar
  41   21   40 1
  42   22   41 1
  43   23   24 1
  44   24   42 1
  45   24   43 1
  46   24   44 1

#	End of record

