#	Name: ASD04910156
#	Creating user name:	WinNT
#	Creation time:	15. 06. 2019 20:55

#	Modifying user name:	WinNT
#	Modification time:	15. 06. 2019 20:55

#	Program:	/corina/corina34_cracker 3.40 0067  02.08.2006

@<TRIPOS>MOLECULE
ASD04910156
  32   33    0    0    0
SMALL
NO_CHARGES


@<TRIPOS>ATOM
   1 C1            -0.0167     1.3839     0.0097 C.ar    
   2 C2             0.0021    -0.0041     0.0020 C.ar    
   3 C3             1.2282    -0.6660    -0.0133 C.ar    
   4 C4             2.3858     0.0920    -0.0203 C.ar    
   5 C5             2.2884     1.4774    -0.0119 C.ar    
   6 N6             1.1073     2.0731     0.0026 N.ar    
   7 N7            -1.1941    -0.7288     0.0101 N.pl3   
   8 C8             4.7284     1.7946    -0.1293 C.2     
   9 N9             5.5411     2.8152    -0.0960 N.2     
  10 C10            4.8306     3.9454     0.0346 C.2     
  11 C11            3.5255     3.6184     0.0847 C.2     
  12 N12            3.4540     2.2528    -0.0190 N.pl3   
  13 C13            5.3957     5.3403     0.1124 C.3     
  14 C14            5.3223     5.8405     1.5564 C.3     
  15 C15            6.8544     5.3260    -0.3490 C.3     
  16 C16            4.5840     6.2704    -0.7915 C.3     
  17 H17           -0.9626     1.9051     0.0170 H       
  18 H18            1.2738    -1.7450    -0.0192 H       
  19 H19            3.3533    -0.3879    -0.0318 H       
  20 H20           -2.0441    -0.2616     0.0210 H       
  21 H21           -1.1737    -1.6985     0.0046 H       
  22 H22            5.0196     0.7597    -0.2321 H       
  23 H23            2.6945     4.3005     0.1873 H       
  24 H24            5.9006     5.1778     2.2003 H       
  25 H25            5.7310     6.8494     1.6126 H       
  26 H26            4.2831     5.8506     1.8851 H       
  27 H27            6.9067     4.9697    -1.3777 H       
  28 H28            7.2631     6.3350    -0.2927 H       
  29 H29            7.4327     4.6634     0.2949 H       
  30 H30            3.5448     6.2806    -0.4628 H       
  31 H31            4.9927     7.2793    -0.7352 H       
  32 H32            4.6363     5.9141    -1.8202 H       
@<TRIPOS>BOND
   1    1    2 ar
   2    1    6 ar
   3    1   17 1
   4    2    3 ar
   5    2    7 1
   6    3    4 ar
   7    3   18 1
   8    4    5 ar
   9    4   19 1
  10    5    6 ar
  11    5   12 1
  12    7   20 1
  13    7   21 1
  14    8    9 2
  15    8   12 1
  16    8   22 1
  17    9   10 1
  18   10   11 2
  19   10   13 1
  20   11   12 1
  21   11   23 1
  22   13   14 1
  23   13   16 1
  24   13   15 1
  25   14   24 1
  26   14   25 1
  27   14   26 1
  28   15   27 1
  29   15   28 1
  30   15   29 1
  31   16   30 1
  32   16   31 1
  33   16   32 1

#	End of record

