#	Name: ASD01918159
#	Creating user name:	WinNT
#	Creation time:	15. 06. 2019 20:10

#	Modifying user name:	WinNT
#	Modification time:	15. 06. 2019 20:10

#	Program:	/corina/corina34_cracker 3.40 0067  02.08.2006

@<TRIPOS>MOLECULE
ASD01918159
  31   32    0    0    0
SMALL
NO_CHARGES


@<TRIPOS>ATOM
   1 C1            -0.0183     1.4967     0.0103 C.2     
   2 C2             0.0021    -0.0041     0.0020 C.3     
   3 C3            -1.3684    -0.5464     0.4175 C.3     
   4 C4            -2.4416     0.2042    -0.3827 C.3     
   5 C5            -2.4260     1.6720     0.0482 C.3     
   6 N6            -1.0673     2.1966     0.0292 N.2     
   7 C7            -3.2660     2.4571    -0.8710 C.1     
   8 C8            -3.9359     3.0832    -1.6041 C.1     
   9 C9            -4.7530     3.8469    -2.4984 C.ar    
  10 C10            1.3056     2.2166     0.0015 C.3     
  11 C11           -4.8979     5.2224    -2.3107 C.ar    
  12 C12           -5.4000     3.2192    -3.5604 C.ar    
  13 C13           -6.1934     3.9687    -4.4273 C.ar    
  14 C14           -6.3354     5.3439    -4.2267 C.ar    
  15 C15           -5.6864     5.9618    -3.1739 C.ar    
  16 F16           -5.8274     7.2920    -2.9840 F       
  17 C17           -6.8612     3.3304    -5.5215 C.1     
  18 N18           -7.3910     2.8241    -6.3895 N.1     
  19 H19            0.2424    -0.3574    -1.0007 H       
  20 H20            0.7592    -0.3597     0.7009 H       
  21 H21           -1.4242    -1.6126     0.1979 H       
  22 H22           -1.5217    -0.3812     1.4839 H       
  23 H23           -2.2228     0.1320    -1.4480 H       
  24 H24           -3.4212    -0.2280    -0.1784 H       
  25 H25           -2.8257     1.7545     1.0589 H       
  26 H26            1.6150     2.3957    -1.0282 H       
  27 H27            1.2046     3.1693     0.5214 H       
  28 H28            2.0548     1.6055     0.5049 H       
  29 H29           -4.3935     5.7103    -1.4898 H       
  30 H30           -5.2869     2.1558    -3.7117 H       
  31 H31           -6.9496     5.9260    -4.8977 H       
@<TRIPOS>BOND
   1    1    2 1
   2    1   10 1
   3    1    6 2
   4    2    3 1
   5    2   19 1
   6    2   20 1
   7    3    4 1
   8    3   21 1
   9    3   22 1
  10    4    5 1
  11    4   23 1
  12    4   24 1
  13    5    6 1
  14    5    7 1
  15    5   25 1
  16    7    8 3
  17    8    9 1
  18    9   11 ar
  19    9   12 ar
  20   10   26 1
  21   10   27 1
  22   10   28 1
  23   11   15 ar
  24   11   29 1
  25   12   13 ar
  26   12   30 1
  27   13   14 ar
  28   13   17 1
  29   14   15 ar
  30   14   31 1
  31   15   16 1
  32   17   18 3

#	End of record

