#	Name: ASD01881438
#	Creating user name:	WinNT
#	Creation time:	15. 06. 2019 19:42

#	Modifying user name:	WinNT
#	Modification time:	15. 06. 2019 19:42

#	Program:	/corina/corina34_cracker 3.40 0067  02.08.2006

@<TRIPOS>MOLECULE
ASD01881438
  66   71    0    0    0
SMALL
NO_CHARGES


@<TRIPOS>ATOM
   1 C1             0.1728     1.3359     0.3450 C.3     
   2 C2             1.1778    10.0382     4.3698 C.ar    
   3 C3             1.3943     8.9234     3.5883 C.ar    
   4 C4             0.0140    10.1460     5.1221 C.ar    
   5 C5            -0.9355     9.1290     5.0886 C.ar    
   6 C6            -0.7234     8.0122     4.3085 C.ar    
   7 C7             0.4445     7.9024     3.5526 C.ar    
   8 C8             0.6749     6.7039     2.7132 C.2     
   9 C9             0.7338     6.8166     1.3366 C.2     
  10 C10            0.8430     5.4321     3.3133 C.2     
  11 C11            1.0522     4.3442     2.5486 C.2     
  12 N12            1.1062     4.4454     1.1882 N.pl3   
  13 C13            0.9537     5.6617     0.5672 C.2     
  14 C14            1.2985     3.5399     0.1892 C.2     
  15 N15            1.2550     4.1894    -0.9451 N.2     
  16 N16            1.0527     5.4426    -0.7351 N.2     
  17 C17            1.5210     2.0592     0.3599 C.3     
  18 Cl18          -2.3877     9.2667     6.0298 Cl      
  19 N19           -0.2026    11.2758     5.9124 N.pl3   
  20 C20            0.7962    12.3469     5.9485 C.3     
  21 C21            0.6362    13.1500     7.2410 C.3     
  22 C22           -0.7665    13.7588     7.2928 C.3     
  23 C23           -0.9661    14.6831     6.0900 C.3     
  24 C24           -0.8061    13.8800     4.7976 C.3     
  25 C25            0.5966    13.2712     4.7457 C.3     
  26 C26            0.1912    -0.1934     0.3878 C.3     
  27 C27           -0.2487     0.6011     1.6191 C.3     
  28 C28            1.6397    14.3899     4.7835 C.3     
  29 C29           -1.0058    14.8043     3.5948 C.3     
  30 C30           -2.3084    15.6038     3.5267 C.3     
  31 C31           -0.9921    16.3123     3.8527 C.3     
  32 O32           -1.7804    12.8352     4.7623 O.3     
  33 C33            0.5643     8.1581     0.6711 C.3     
  34 F34            1.8219     8.7233     0.4340 F       
  35 F35           -0.1098     7.9941    -0.5438 F       
  36 F36           -0.1766     9.0021     1.5053 F       
  37 H37           -0.6105     1.8135    -0.2434 H       
  38 H38            1.9152    10.8266     4.4010 H       
  39 H39            2.2987     8.8406     3.0038 H       
  40 H40           -1.4602     7.2229     4.2827 H       
  41 H41            0.8030     5.3347     4.3881 H       
  42 H42            1.1797     3.3795     3.0171 H       
  43 H43            2.0221     1.8742     1.3100 H       
  44 H44            2.1412     1.6885    -0.4562 H       
  45 H45           -1.0145    11.3518     6.4377 H       
  46 H46            1.7955    11.9132     5.9116 H       
  47 H47            0.7784    12.4915     8.0979 H       
  48 H48            1.3793    13.9470     7.2679 H       
  49 H49           -1.5097    12.9618     7.2659 H       
  50 H50           -0.8805    14.3309     8.2135 H       
  51 H51           -1.9655    15.1167     6.1269 H       
  52 H52           -0.2230    15.4800     6.1169 H       
  53 H53            0.7106    12.6991     3.8250 H       
  54 H54           -0.5804    -0.7218    -0.1722 H       
  55 H55            1.1636    -0.6842     0.4266 H       
  56 H56            0.4344     0.6331     2.4679 H       
  57 H57           -1.3096     0.5954     1.8692 H       
  58 H58            1.5257    14.9620     5.7043 H       
  59 H59            2.6390    13.9562     4.7466 H       
  60 H60            1.4975    15.0483     3.9266 H       
  61 H61           -0.5828    14.4503     2.6546 H       
  62 H62           -2.7423    15.7762     2.5418 H       
  63 H63           -3.0233    15.4713     4.3389 H       
  64 H64           -0.8410    16.6459     4.8794 H       
  65 H65           -0.5600    16.9508     3.0822 H       
  66 H66           -2.6910    13.1428     4.8686 H       
@<TRIPOS>BOND
   1    1   26 1
   2    1   17 1
   3    1   27 1
   4    1   37 1
   5    2    3 ar
   6    2    4 ar
   7    2   38 1
   8    3    7 ar
   9    3   39 1
  10    4    5 ar
  11    4   19 1
  12    5    6 ar
  13    5   18 1
  14    6    7 ar
  15    6   40 1
  16    7    8 1
  17    8    9 2
  18    8   10 1
  19    9   33 1
  20    9   13 1
  21   10   11 2
  22   10   41 1
  23   11   12 1
  24   11   42 1
  25   12   13 1
  26   12   14 1
  27   13   16 2
  28   14   15 2
  29   14   17 1
  30   15   16 1
  31   17   43 1
  32   17   44 1
  33   19   20 1
  34   19   45 1
  35   20   21 1
  36   20   25 1
  37   20   46 1
  38   21   22 1
  39   21   47 1
  40   21   48 1
  41   22   23 1
  42   22   49 1
  43   22   50 1
  44   23   24 1
  45   23   51 1
  46   23   52 1
  47   24   25 1
  48   24   29 1
  49   24   32 1
  50   25   28 1
  51   25   53 1
  52   26   27 1
  53   26   54 1
  54   26   55 1
  55   27   56 1
  56   27   57 1
  57   28   58 1
  58   28   59 1
  59   28   60 1
  60   29   30 1
  61   29   31 1
  62   29   61 1
  63   30   31 1
  64   30   62 1
  65   30   63 1
  66   31   64 1
  67   31   65 1
  68   32   66 1
  69   33   34 1
  70   33   35 1
  71   33   36 1

#	End of record

