#	Name: ASD01911898
#	Creating user name:	WinNT
#	Creation time:	15. 06. 2019 19:58

#	Modifying user name:	WinNT
#	Modification time:	15. 06. 2019 19:58

#	Program:	/corina/corina34_cracker 3.40 0067  02.08.2006

@<TRIPOS>MOLECULE
ASD01911898
  36   38    0    0    0
SMALL
NO_CHARGES


@<TRIPOS>ATOM
   1 C1            -1.0503    -0.4982    -2.0812 C.ar    
   2 C2            -1.0545     0.0501    -0.8027 C.ar    
   3 C3            -1.0141     1.4352    -0.6793 C.ar    
   4 N4            -0.9734     2.1763    -1.7742 N.ar    
   5 C5            -0.9708     1.6190    -2.9685 C.ar    
   6 N6            -1.0083     0.3112    -3.1267 N.ar    
   7 O7            -1.0974    -0.7468     0.2974 O.3     
   8 C8            -1.1387    -2.0920     0.1095 C.ar    
   9 C9             0.0155    -2.7785    -0.2317 C.ar    
  10 C10           -0.0271    -4.1601    -0.4242 C.ar    
  11 C11           -1.2335    -4.8451    -0.2720 C.ar    
  12 C12           -2.3839    -4.1508     0.0695 C.ar    
  13 C13           -2.3351    -2.7764     0.2651 C.ar    
  14 N14           -3.5939    -4.8357     0.2219 N.am    
  15 C15           -4.7556    -4.2302    -0.0949 C.2     
  16 C16           -6.0402    -4.9139     0.1643 C.ar    
  17 O17           -4.7468    -3.1217    -0.5938 O.2     
  18 C18           -7.2449    -4.2896    -0.1627 C.ar    
  19 C19           -8.4408    -4.9331     0.0812 C.ar    
  20 C20           -8.4480    -6.1944     0.6490 C.ar    
  21 C21           -7.2567    -6.8199     0.9760 C.ar    
  22 C22           -6.0534    -6.1893     0.7318 C.ar    
  23 Br23          -7.2781    -8.5442     1.7518 Br      
  24 C24            1.1636    -4.8728    -0.7773 C.1     
  25 N25            2.1083    -5.4382    -1.0574 N.1     
  26 H26           -1.0764    -1.5692    -2.2182 H       
  27 H27           -1.0162     1.8986     0.2963 H       
  28 H28           -0.9374     2.2523    -3.8427 H       
  29 H29            0.9472    -2.2449    -0.3489 H       
  30 H30           -1.2709    -5.9142    -0.4204 H       
  31 H31           -3.2327    -2.2382     0.5315 H       
  32 H32           -3.5970    -5.7465     0.5557 H       
  33 H33           -7.2410    -3.3045    -0.6054 H       
  34 H34           -9.3735    -4.4507    -0.1714 H       
  35 H35           -9.3869    -6.6934     0.8385 H       
  36 H36           -5.1247    -6.6779     0.9867 H       
@<TRIPOS>BOND
   1    1    2 ar
   2    1    6 ar
   3    1   26 1
   4    2    3 ar
   5    2    7 1
   6    3    4 ar
   7    3   27 1
   8    4    5 ar
   9    5    6 ar
  10    5   28 1
  11    7    8 1
  12    8    9 ar
  13    8   13 ar
  14    9   10 ar
  15    9   29 1
  16   10   11 ar
  17   10   24 1
  18   11   12 ar
  19   11   30 1
  20   12   13 ar
  21   12   14 1
  22   13   31 1
  23   14   15 am
  24   14   32 1
  25   15   16 1
  26   15   17 2
  27   16   18 ar
  28   16   22 ar
  29   18   19 ar
  30   18   33 1
  31   19   20 ar
  32   19   34 1
  33   20   21 ar
  34   20   35 1
  35   21   22 ar
  36   21   23 1
  37   22   36 1
  38   24   25 3

#	End of record

