#	Name: ASD01150822
#	Creating user name:	WinNT
#	Creation time:	15. 06. 2019 19:05

#	Modifying user name:	WinNT
#	Modification time:	15. 06. 2019 19:05

#	Program:	/corina/corina34_cracker 3.40 0067  02.08.2006

@<TRIPOS>MOLECULE
ASD01150822
  48   49    0    0    0
SMALL
NO_CHARGES


@<TRIPOS>ATOM
   1 N1             0.1336     0.7148     0.5590 N.3     
   2 C2             1.5475     0.7323     0.9615 C.3     
   3 C3             2.2723    -0.4490     0.3110 C.3     
   4 O4             2.1124    -0.3769    -1.1083 O.3     
   5 C5             0.7477    -0.3923    -1.5355 C.3     
   6 C6             0.0074     0.7895    -0.9038 C.3     
   7 C7            -0.6120     1.8015     1.2080 C.3     
   8 C8             1.4976     4.4604    -0.2131 C.ar    
   9 N9             1.0966     3.3059     0.2805 N.ar    
  10 C10           -0.1625     3.1251     0.6450 C.ar    
  11 C11           -1.0625     4.1696     0.5017 C.ar    
  12 C12           -0.6035     5.3681    -0.0210 C.ar    
  13 N13            0.6703     5.4751    -0.3637 N.ar    
  14 C14           -1.5423     6.5337    -0.1973 C.3     
  15 F15           -1.5412     7.3132     0.9644 F       
  16 F16           -1.1214     7.3116    -1.2812 F       
  17 F17           -2.8357     6.0584    -0.4388 F       
  18 S18           -2.3866     1.5849     0.9005 S.3     
  19 C19           -2.7243     0.5318     3.4022 C.3     
  20 C20           -2.8055     0.1468     1.9237 C.3     
  21 C21           -4.2260    -0.3168     1.5946 C.3     
  22 C22           -4.2769    -0.8190     0.1503 C.3     
  23 C23           -5.6973    -1.2826    -0.1787 C.3     
  24 C24           -5.7482    -1.7848    -1.6231 C.3     
  25 H25            2.0071     1.6654     0.6357 H       
  26 H26            1.6182     0.6502     2.0461 H       
  27 H27            3.3326    -0.4075     0.5605 H       
  28 H28            1.8477    -1.3834     0.6781 H       
  29 H29            0.7053    -0.3098    -2.6216 H       
  30 H30            0.2787    -1.3251    -1.2221 H       
  31 H31           -1.0461     0.7492    -1.1807 H       
  32 H32            0.4424     1.7236    -1.2593 H       
  33 H33           -0.4240     1.7805     2.2815 H       
  34 H34            2.5326     4.5794    -0.4976 H       
  35 H35           -2.0966     4.0520     0.7901 H       
  36 H36           -2.8476    -0.3597     4.0171 H       
  37 H37           -1.7536     0.9832     3.6073 H       
  38 H38           -3.5139     1.2461     3.6356 H       
  39 H39           -2.1031    -0.6613     1.7195 H       
  40 H40           -4.5105    -1.1236     2.2701 H       
  41 H41           -4.9172     0.5175     1.7138 H       
  42 H42           -3.9924    -0.0122    -0.5251 H       
  43 H43           -3.5856    -1.6533     0.0312 H       
  44 H44           -5.9818    -2.0894     0.4967 H       
  45 H45           -6.3886    -0.4483    -0.0596 H       
  46 H46           -5.4637    -0.9780    -2.2985 H       
  47 H47           -5.0569    -2.6191    -1.7422 H       
  48 H48           -6.7601    -2.1151    -1.8575 H       
@<TRIPOS>BOND
   1    1    2 1
   2    1    6 1
   3    1    7 1
   4    2    3 1
   5    2   25 1
   6    2   26 1
   7    3    4 1
   8    3   27 1
   9    3   28 1
  10    4    5 1
  11    5    6 1
  12    5   29 1
  13    5   30 1
  14    6   31 1
  15    6   32 1
  16    7   10 1
  17    7   18 1
  18    7   33 1
  19    8    9 ar
  20    8   13 ar
  21    8   34 1
  22    9   10 ar
  23   10   11 ar
  24   11   12 ar
  25   11   35 1
  26   12   13 ar
  27   12   14 1
  28   14   15 1
  29   14   16 1
  30   14   17 1
  31   18   20 1
  32   19   20 1
  33   19   36 1
  34   19   37 1
  35   19   38 1
  36   20   21 1
  37   20   39 1
  38   21   22 1
  39   21   40 1
  40   21   41 1
  41   22   23 1
  42   22   42 1
  43   22   43 1
  44   23   24 1
  45   23   44 1
  46   23   45 1
  47   24   46 1
  48   24   47 1
  49   24   48 1

#	End of record

