#	Name: ASD01917622
#	Creating user name:	WinNT
#	Creation time:	15. 06. 2019 20:09

#	Modifying user name:	WinNT
#	Modification time:	15. 06. 2019 20:09

#	Program:	/corina/corina34_cracker 3.40 0067  02.08.2006

@<TRIPOS>MOLECULE
ASD01917622
  56   60    0    0    0
SMALL
NO_CHARGES


@<TRIPOS>ATOM
   1 C1            -0.0166     1.3756     0.0096 C.ar    
   2 C2             0.0021    -0.0041     0.0020 C.ar    
   3 C3             1.2194    -0.6823    -0.0133 C.ar    
   4 C4             2.4130     0.0370    -0.0209 C.ar    
   5 C5             2.3848     1.4166    -0.0132 C.ar    
   6 C6             1.1724     2.0866     0.0021 C.ar    
   7 C7             1.2446    -2.1657    -0.0210 C.2     
   8 N8             0.1683    -2.9780    -0.0151 N.2     
   9 C9             2.3561    -2.9466    -0.0413 C.2     
  10 N10            1.9244    -4.2459    -0.0418 N.pl3   
  11 C11            0.5659    -4.2197    -0.0255 C.2     
  12 C12            2.7339    -5.3914    -0.0601 C.ar    
  13 C13            3.7523    -5.5078    -0.9962 C.ar    
  14 C14            4.5483    -6.6363    -1.0127 C.ar    
  15 C15            4.3311    -7.6513    -0.0961 C.ar    
  16 C16            3.3156    -7.5369     0.8385 C.ar    
  17 C17            2.5213    -6.4074     0.8616 C.ar    
  18 C18           -0.3342    -5.4284    -0.0191 C.3     
  19 C19           -0.6172    -5.8364     1.4037 C.2     
  20 N20           -1.4057    -6.9001     1.6555 N.am    
  21 O21           -0.1355    -5.2077     2.3221 O.2     
  22 C22           -1.6947    -7.3154     3.0366 C.3     
  23 C23           -2.0049    -7.6726     0.5567 C.3     
  24 C24           -3.5094    -7.8023     0.8168 C.3     
  25 N25           -3.7249    -8.3607     2.1583 N.3     
  26 C26           -3.2121    -7.4598     3.1940 C.3     
  27 C27           -5.0633    -8.6439     2.3686 C.ar    
  28 N28           -5.4411    -9.1562     3.5306 N.ar    
  29 N29           -5.9370    -8.3911     1.4051 N.ar    
  30 C30           -7.2232    -8.6496     1.5738 C.ar    
  31 C31           -7.6521    -9.1908     2.7756 C.ar    
  32 C32           -6.7123    -9.4379     3.7639 C.ar    
  33 F33            5.1105    -8.7547    -0.1139 F       
  34 F34            1.1494     3.4374     0.0095 F       
  35 H35           -0.9596     1.9021     0.0169 H       
  36 H36           -0.9253    -0.5575     0.0083 H       
  37 H37            3.3587    -0.4845    -0.0324 H       
  38 H38            3.3094     1.9748    -0.0187 H       
  39 H39            3.3816    -2.6081    -0.0550 H       
  40 H40            3.9218    -4.7165    -1.7114 H       
  41 H41            5.3405    -6.7273    -1.7411 H       
  42 H42            3.1474    -8.3297     1.5524 H       
  43 H43            1.7297    -6.3183     1.5909 H       
  44 H44           -1.2711    -5.1864    -0.5209 H       
  45 H45            0.1564    -6.2494    -0.5419 H       
  46 H46           -1.2128    -8.2717     3.2398 H       
  47 H47           -1.3247    -6.5609     3.7308 H       
  48 H48           -1.8399    -7.1543    -0.3878 H       
  49 H49           -1.5533    -8.6639     0.5173 H       
  50 H50           -3.9757    -6.8191     0.7528 H       
  51 H51           -3.9516    -8.4640     0.0720 H       
  52 H52           -3.4338    -7.8732     4.1779 H       
  53 H53           -3.6861    -6.4834     3.0940 H       
  54 H54           -7.9307    -8.4410     0.7849 H       
  55 H55           -8.6966    -9.4111     2.9399 H       
  56 H56           -7.0137    -9.8591     4.7117 H       
@<TRIPOS>BOND
   1    1    2 ar
   2    1    6 ar
   3    1   35 1
   4    2    3 ar
   5    2   36 1
   6    3    4 ar
   7    3    7 1
   8    4    5 ar
   9    4   37 1
  10    5    6 ar
  11    5   38 1
  12    6   34 1
  13    7    8 1
  14    7    9 2
  15    8   11 2
  16    9   10 1
  17    9   39 1
  18   10   11 1
  19   10   12 1
  20   11   18 1
  21   12   13 ar
  22   12   17 ar
  23   13   14 ar
  24   13   40 1
  25   14   15 ar
  26   14   41 1
  27   15   16 ar
  28   15   33 1
  29   16   17 ar
  30   16   42 1
  31   17   43 1
  32   18   19 1
  33   18   44 1
  34   18   45 1
  35   19   20 am
  36   19   21 2
  37   20   22 1
  38   20   23 1
  39   22   26 1
  40   22   46 1
  41   22   47 1
  42   23   24 1
  43   23   48 1
  44   23   49 1
  45   24   25 1
  46   24   50 1
  47   24   51 1
  48   25   26 1
  49   25   27 1
  50   26   52 1
  51   26   53 1
  52   27   28 ar
  53   27   29 ar
  54   28   32 ar
  55   29   30 ar
  56   30   31 ar
  57   30   54 1
  58   31   32 ar
  59   31   55 1
  60   32   56 1

#	End of record

