#	Name: ASD00840965
#	Creating user name:	WinNT
#	Creation time:	15. 06. 2019 18:40

#	Modifying user name:	WinNT
#	Modification time:	15. 06. 2019 18:40

#	Program:	/corina/corina34_cracker 3.40 0067  02.08.2006

@<TRIPOS>MOLECULE
ASD00840965
  87   92    0    0    0
SMALL
NO_CHARGES


@<TRIPOS>ATOM
   1 F1             6.0840    -1.9624    -1.9979 F       
   2 N2             1.0876     1.4619    -0.7363 N.ar    
   3 C3             1.3444     0.1694    -0.8480 C.ar    
   4 C4             1.2535    -0.6684     0.2564 C.ar    
   5 C5             0.8898    -0.1330     1.4794 C.ar    
   6 C6             0.6286     1.2285     1.5549 C.ar    
   7 C7             0.7386     2.0013     0.4164 C.ar    
   8 C8             1.5466    -2.1407     0.1242 C.3     
   9 C9             1.2526    -2.8588     1.4240 C.2     
  10 C10            0.7314    -2.7475    -1.0196 C.3     
  11 C11           -0.7312    -2.4550    -0.8043 C.2     
  12 N12           -1.6523    -2.9737    -1.6403 N.am    
  13 O13           -1.0794    -1.7528     0.1212 O.2     
  14 C14           -3.0728    -2.6130    -1.5160 C.3     
  15 C15           -3.5844    -2.1693    -2.8906 C.3     
  16 N16           -3.2936    -3.2163    -3.8791 N.3     
  17 C17           -1.8467    -3.4205    -4.0290 C.3     
  18 C18           -1.2629    -3.9108    -2.7049 C.3     
  19 N19           -3.9121    -2.9107    -5.1591 N.3     
  20 C20           -3.6211    -3.9580    -6.1480 C.3     
  21 C21           -4.3532    -3.6403    -7.4540 C.3     
  22 N22           -3.9247    -2.3230    -7.9447 N.3     
  23 C23           -4.2156    -1.2756    -6.9558 C.3     
  24 C24           -3.4836    -1.5934    -5.6498 C.3     
  25 H25           -2.9454    -2.3288    -8.1879 H       
  26 O26            0.1765    -2.9328     1.9787 O.2     
  27 N27            2.4076    -3.3991     1.8477 N.am    
  28 C28            3.0244    -2.3687    -0.0961 C.ar    
  29 C29            3.4669    -3.1301     0.9784 C.ar    
  30 C30            3.8934    -1.9774    -1.0898 C.ar    
  31 C31            5.2280    -2.3438    -1.0248 C.ar    
  32 C32            5.6818    -3.1037     0.0427 C.ar    
  33 C33            4.8095    -3.4961     1.0397 C.ar    
  34 F34            6.9828    -3.4620     0.1081 F       
  35 C35            2.2607    -5.9680     2.8242 C.ar    
  36 C36            1.0074    -6.3612     2.3772 C.ar    
  37 C37            3.2779    -6.8966     2.9375 C.ar    
  38 C38            3.0499    -8.2183     2.6059 C.ar    
  39 C39            1.7979    -8.6166     2.1583 C.ar    
  40 C40            0.7759    -7.6871     2.0441 C.ar    
  41 O41            1.5741    -9.9168     1.8326 O.3     
  42 O42            0.0075    -5.4476     2.2663 O.3     
  43 C43           -1.2568    -5.9230     1.7997 C.3     
  44 C44            2.6726   -10.8196     1.9750 C.3     
  45 S45            2.5577    -4.2819     3.2407 S.o2    
  46 O46            3.9235    -4.1978     3.6238 O.2     
  47 O47            1.4874    -3.8828     4.0860 O.2     
  48 O48            1.6996    -0.3434    -2.0529 O.3     
  49 C49            2.2074    -0.1727    -4.4095 C.3     
  50 C50            1.6673     0.5456    -3.1713 C.3     
  51 H51            0.8106    -0.7599     2.3553 H       
  52 H52            0.3420     1.6780     2.4941 H       
  53 H53            0.5368     3.0610     0.4698 H       
  54 H54            1.0534    -2.3127    -1.9658 H       
  55 H55            0.8865    -3.8261    -1.0439 H       
  56 H56           -3.6418    -3.4781    -1.1753 H       
  57 H57           -3.1820    -1.7956    -0.8033 H       
  58 H58           -4.6607    -2.0038    -2.8420 H       
  59 H59           -3.0867    -1.2447    -3.1829 H       
  60 H60           -1.6626    -4.1624    -4.8061 H       
  61 H61           -1.3731    -2.4785    -4.3055 H       
  62 H62           -0.1762    -3.9539    -2.7775 H       
  63 H63           -1.6570    -4.9008    -2.4753 H       
  64 H64           -2.5476    -3.9956    -6.3328 H       
  65 H65           -3.9589    -4.9218    -5.7670 H       
  66 H66           -4.1157    -4.4005    -8.1982 H       
  67 H67           -5.4283    -3.6296    -7.2749 H       
  68 H68           -3.8779    -0.3119    -7.3368 H       
  69 H69           -5.2892    -1.2380    -6.7711 H       
  70 H70           -3.7210    -0.8332    -4.9056 H       
  71 H71           -2.4084    -1.6041    -5.8289 H       
  72 H72            3.5350    -1.3859    -1.9194 H       
  73 H73            5.1694    -4.0876     1.8686 H       
  74 H74            4.2527    -6.5886     3.2856 H       
  75 H75            3.8465    -8.9420     2.6946 H       
  76 H76           -0.1990    -7.9952     1.6964 H       
  77 H77           -1.9636    -5.0943     1.7579 H       
  78 H78           -1.1391    -6.3507     0.8040 H       
  79 H79           -1.6319    -6.6865     2.4811 H       
  80 H80            2.3594   -11.8219     1.6827 H       
  81 H81            3.4946   -10.4952     1.3370 H       
  82 H82            3.0016   -10.8304     3.0141 H       
  83 H83            2.2647     0.5298    -5.2410 H       
  84 H84            3.2016    -0.5658    -4.1968 H       
  85 H85            1.5407    -0.9938    -4.6729 H       
  86 H86            0.6405     0.8625    -3.3540 H       
  87 H87            2.2847     1.4186    -2.9594 H       
@<TRIPOS>BOND
   1    1   31 1
   2    2    3 ar
   3    2    7 ar
   4    3    4 ar
   5    3   48 1
   6    4    5 ar
   7    4    8 1
   8    5    6 ar
   9    5   51 1
  10    6    7 ar
  11    6   52 1
  12    7   53 1
  13    8    9 1
  14    8   10 1
  15    8   28 1
  16    9   26 2
  17    9   27 am
  18   10   11 1
  19   10   54 1
  20   10   55 1
  21   11   12 am
  22   11   13 2
  23   12   14 1
  24   12   18 1
  25   14   15 1
  26   14   56 1
  27   14   57 1
  28   15   16 1
  29   15   58 1
  30   15   59 1
  31   16   17 1
  32   16   19 1
  33   17   18 1
  34   17   60 1
  35   17   61 1
  36   18   62 1
  37   18   63 1
  38   19   20 1
  39   19   24 1
  40   20   21 1
  41   20   64 1
  42   20   65 1
  43   21   22 1
  44   21   66 1
  45   21   67 1
  46   22   23 1
  47   22   25 1
  48   23   24 1
  49   23   68 1
  50   23   69 1
  51   24   70 1
  52   24   71 1
  53   27   45 am
  54   27   29 1
  55   28   29 ar
  56   28   30 ar
  57   29   33 ar
  58   30   31 ar
  59   30   72 1
  60   31   32 ar
  61   32   33 ar
  62   32   34 1
  63   33   73 1
  64   35   36 ar
  65   35   37 ar
  66   35   45 1
  67   36   42 1
  68   36   40 ar
  69   37   38 ar
  70   37   74 1
  71   38   39 ar
  72   38   75 1
  73   39   40 ar
  74   39   41 1
  75   40   76 1
  76   41   44 1
  77   42   43 1
  78   43   77 1
  79   43   78 1
  80   43   79 1
  81   44   80 1
  82   44   81 1
  83   44   82 1
  84   45   46 2
  85   45   47 2
  86   48   50 1
  87   49   50 1
  88   49   83 1
  89   49   84 1
  90   49   85 1
  91   50   86 1
  92   50   87 1

#	End of record

