#	Name: ASD01180443
#	Creating user name:	WinNT
#	Creation time:	15. 06. 2019 19:07

#	Modifying user name:	WinNT
#	Modification time:	15. 06. 2019 19:07

#	Program:	/corina/corina34_cracker 3.40 0067  02.08.2006

@<TRIPOS>MOLECULE
ASD01180443
  14   14    0    0    0
SMALL
NO_CHARGES


@<TRIPOS>ATOM
   1 C1            -0.0188     1.5336     0.0105 C.3     
   2 C2             0.0021    -0.0041     0.0020 C.3     
   3 C3             1.3941     0.0896     0.6488 C.3     
   4 C4             1.5179     1.4762    -0.0045 C.3     
   5 C5            -0.6126     2.1361    -1.2367 C.2     
   6 O6            -1.5883     2.8435    -1.1600 O.2     
   7 H7            -0.4309     1.9596     0.9252 H       
   8 H8            -0.7506    -0.4545     0.6490 H       
   9 H9             0.0139    -0.4351    -0.9991 H       
  10 H10            1.3682     0.1209     1.7381 H       
  11 H11            2.1053    -0.6404     0.2621 H       
  12 H12            1.9441     1.4499    -1.0074 H       
  13 H13            1.9889     2.2208     0.6373 H       
  14 H14           -0.1655     1.9353    -2.1991 H       
@<TRIPOS>BOND
   1    1    2 1
   2    1    4 1
   3    1    5 1
   4    1    7 1
   5    2    3 1
   6    2    8 1
   7    2    9 1
   8    3    4 1
   9    3   10 1
  10    3   11 1
  11    4   12 1
  12    4   13 1
  13    5    6 2
  14    5   14 1

#	End of record

