#	Name: ASD01900890
#	Creating user name:	WinNT
#	Creation time:	15. 06. 2019 19:52

#	Modifying user name:	WinNT
#	Modification time:	15. 06. 2019 19:52

#	Program:	/corina/corina34_cracker 3.40 0067  02.08.2006

@<TRIPOS>MOLECULE
ASD01900890
  37   39    0    0    0
SMALL
NO_CHARGES


@<TRIPOS>ATOM
   1 C1            -0.0167     1.3778     0.0096 C.ar    
   2 C2             0.0021    -0.0041     0.0020 C.ar    
   3 C3            -1.1853    -0.7121     0.0100 C.ar    
   4 C4            -2.3930    -0.0376     0.0256 C.ar    
   5 C5            -2.4124     1.3458     0.0332 C.ar    
   6 C6            -1.2241     2.0535     0.0306 C.ar    
   7 Cl7           -1.2474     3.7893     0.0407 Cl      
   8 C8             1.2781     2.1488     0.0014 C.3     
   9 S9             1.7813     2.4674    -1.7121 S.o2    
  10 C10            3.2909     3.3646    -1.5674 C.2     
  11 O11            2.1537     1.2565    -2.3557 O.2     
  12 O12            0.8880     3.3821    -2.3322 O.2     
  13 C13            4.5150     2.8357    -1.5133 C.2     
  14 N14            5.4899     3.7186    -1.4051 N.2     
  15 C15            5.1480     4.9685    -1.3651 C.2     
  16 S16            3.4484     5.1169    -1.4766 S.3     
  17 N17            6.0338     6.0324    -1.2538 N.am    
  18 C18            7.3593     5.8006    -1.1787 C.2     
  19 O19            7.7795     4.6606    -1.2085 O.2     
  20 C20            8.3040     6.9351    -1.0600 C.ar    
  21 N21            7.8391     8.1780    -1.0279 N.ar    
  22 C22            8.6438     9.2131    -0.9229 C.ar    
  23 C23           10.0163     9.0421    -0.8412 C.ar    
  24 C24           10.5446     7.7607    -0.8710 C.ar    
  25 C25            9.6729     6.6886    -0.9770 C.ar    
  26 Cl26          -3.8839    -0.9268     0.0351 Cl      
  27 H27            0.9447    -0.5311    -0.0105 H       
  28 H28           -1.1700    -1.7919     0.0037 H       
  29 H29           -3.3550     1.8728     0.0451 H       
  30 H30            1.1399     3.0966     0.5217 H       
  31 H31            2.0505     1.5673     0.5048 H       
  32 H32            4.6933     1.7713    -1.5548 H       
  33 H33            5.6984     6.9422    -1.2300 H       
  34 H34            8.2290    10.2100    -0.9003 H       
  35 H35           10.6683     9.8988    -0.7556 H       
  36 H36           11.6110     7.6014    -0.8093 H       
  37 H37           10.0497     5.6768    -1.0030 H       
@<TRIPOS>BOND
   1    1    2 ar
   2    1    8 1
   3    1    6 ar
   4    2    3 ar
   5    2   27 1
   6    3    4 ar
   7    3   28 1
   8    4    5 ar
   9    4   26 1
  10    5    6 ar
  11    5   29 1
  12    6    7 1
  13    8    9 1
  14    8   30 1
  15    8   31 1
  16    9   10 1
  17    9   11 2
  18    9   12 2
  19   10   13 2
  20   10   16 1
  21   13   14 1
  22   13   32 1
  23   14   15 2
  24   15   16 1
  25   15   17 1
  26   17   18 am
  27   17   33 1
  28   18   19 2
  29   18   20 1
  30   20   21 ar
  31   20   25 ar
  32   21   22 ar
  33   22   23 ar
  34   22   34 1
  35   23   24 ar
  36   23   35 1
  37   24   25 ar
  38   24   36 1
  39   25   37 1

#	End of record

