#	Name: ASD01190146
#	Creating user name:	WinNT
#	Creation time:	15. 06. 2019 19:07

#	Modifying user name:	WinNT
#	Modification time:	15. 06. 2019 19:07

#	Program:	/corina/corina34_cracker 3.40 0067  02.08.2006

@<TRIPOS>MOLECULE
ASD01190146
  40   43    0    0    0
SMALL
NO_CHARGES


@<TRIPOS>ATOM
   1 N1             3.4371     4.3653     0.1973 N.pl3   
   2 N2             2.8042     4.0598     1.2726 N.2     
   3 C3             2.7356     2.7496     1.4006 C.2     
   4 C4             3.3986     2.1904     0.2821 C.2     
   5 C5             3.8253     3.2460    -0.4504 C.2     
   6 C6             2.1101     2.0292     2.4684 C.1     
   7 N7             1.6139     1.4576     3.3155 N.1     
   8 C8             3.5898     0.7281    -0.0279 C.3     
   9 C9             2.2311     0.0856    -0.3144 C.3     
  10 O10            4.4329     0.5903    -1.1734 O.3     
  11 N11            6.1958    -1.6767     4.3350 N.pl3   
  12 N12            7.4103    -0.9860     4.2683 N.2     
  13 C13            7.3907    -0.1407     3.2770 C.2     
  14 C14            6.0917    -0.2516     2.6209 C.ar    
  15 C15            5.4981     0.3847     1.5250 C.ar    
  16 C16            4.2301     0.0440     1.1524 C.ar    
  17 C17            3.5237    -0.9274     1.8512 C.ar    
  18 C18            4.0819    -1.5621     2.9246 C.ar    
  19 C19            5.3739    -1.2359     3.3277 C.ar    
  20 C20            5.8724    -2.6639     5.2749 C.ar    
  21 C21            6.8519    -3.5349     5.7335 C.ar    
  22 C22            6.5310    -4.5074     6.6600 C.ar    
  23 C23            5.2334    -4.6144     7.1318 C.ar    
  24 C24            4.2551    -3.7468     6.6758 C.ar    
  25 C25            4.5731    -2.7692     5.7536 C.ar    
  26 F26            4.9214    -5.5667     8.0378 F       
  27 F27            1.6367     0.7208    -1.4101 F       
  28 F28            2.4086    -1.2719    -0.6021 F       
  29 F29            1.4057     0.2206     0.8071 F       
  30 H30            3.6080     5.2701    -0.1077 H       
  31 H31            4.3736     3.2011    -1.3798 H       
  32 H32            5.3128     0.9759    -1.0628 H       
  33 H33            8.1927     0.5240     2.9918 H       
  34 H34            6.0402     1.1412     0.9773 H       
  35 H35            2.5210    -1.1835     1.5423 H       
  36 H36            3.5221    -2.3151     3.4594 H       
  37 H37            7.8639    -3.4521     5.3655 H       
  38 H38            7.2925    -5.1852     7.0166 H       
  39 H39            3.2436    -3.8321     7.0447 H       
  40 H40            3.8109    -2.0897     5.4018 H       
@<TRIPOS>BOND
   1    1    2 1
   2    1    5 1
   3    1   30 1
   4    2    3 2
   5    3    4 1
   6    3    6 1
   7    4    5 2
   8    4    8 1
   9    5   31 1
  10    6    7 3
  11    8    9 1
  12    8   10 1
  13    8   16 1
  14    9   27 1
  15    9   28 1
  16    9   29 1
  17   10   32 1
  18   11   12 1
  19   11   19 1
  20   11   20 1
  21   12   13 2
  22   13   14 1
  23   13   33 1
  24   14   15 ar
  25   14   19 ar
  26   15   16 ar
  27   15   34 1
  28   16   17 ar
  29   17   18 ar
  30   17   35 1
  31   18   19 ar
  32   18   36 1
  33   20   21 ar
  34   20   25 ar
  35   21   22 ar
  36   21   37 1
  37   22   23 ar
  38   22   38 1
  39   23   24 ar
  40   23   26 1
  41   24   25 ar
  42   24   39 1
  43   25   40 1

#	End of record

