#	Name: ASD03730354
#	Creating user name:	WinNT
#	Creation time:	15. 06. 2019 20:44

#	Modifying user name:	WinNT
#	Modification time:	15. 06. 2019 20:44

#	Program:	/corina/corina34_cracker 3.40 0067  02.08.2006

@<TRIPOS>MOLECULE
ASD03730354
  77   85    0    0    0
SMALL
NO_CHARGES


@<TRIPOS>ATOM
   1 O1             7.8661     3.6720    -3.1676 O.3     
   2 C2             8.4104     3.1735    -4.4039 C.3     
   3 O3             7.2457     2.8237    -5.1745 O.3     
   4 C4             6.2475     3.6360    -4.7178 C.ar    
   5 C5             6.6291     4.1565    -3.4833 C.ar    
   6 C6             5.0245     3.9796    -5.2651 C.ar    
   7 C7             4.1674     4.8432    -4.5896 C.ar    
   8 C8             4.5559     5.3502    -3.3533 C.ar    
   9 C9             5.7775     5.0144    -2.8078 C.ar    
  10 O10            2.9418     5.3171    -4.9548 O.3     
  11 C11            3.4231     6.2154    -2.8695 C.3     
  12 C12            2.2600     5.8192    -3.7892 C.3     
  13 N13            3.2302     7.1600    -0.7971 N.am    
  14 C14            3.1006     5.9732    -1.4231 C.2     
  15 C15            3.7405     7.6781    -2.9668 C.ar    
  16 C16            4.1037     8.5056    -4.0059 C.ar    
  17 C17            4.3345     9.8496    -3.7731 C.ar    
  18 C18            4.1998    10.3597    -2.4946 C.ar    
  19 C19            3.8372     9.5348    -1.4503 C.ar    
  20 C20            3.6025     8.1805    -1.6754 C.ar    
  21 O21            2.7850     4.9170    -0.9172 O.2     
  22 C22            3.0060     7.3569     0.6372 C.3     
  23 C23            1.5801     7.7863     0.8684 C.ar    
  24 C24            1.1037     7.9588     2.1691 C.ar    
  25 C25           -0.2180     8.3571     2.3746 C.ar    
  26 C26           -1.0449     8.5779     1.2923 C.ar    
  27 C27           -0.5666     8.4048     0.0058 C.ar    
  28 C28            0.7445     8.0154    -0.2049 C.ar    
  29 C29            1.9952     7.7199     3.3241 C.2     
  30 O30            2.5946     6.6670     3.4217 O.2     
  31 N31            2.1431     8.6697     4.2689 N.am    
  32 C32            3.0908     8.4889     5.3791 C.3     
  33 C33            3.9853     9.7304     5.4625 C.3     
  34 N34            3.1438    10.9311     5.5534 N.3     
  35 C35            2.3237    11.0996     4.3463 C.3     
  36 C36            1.3656     9.9169     4.2138 C.3     
  37 C37            3.9584    12.1268     5.8077 C.3     
  38 O38            0.7149    16.7065     5.4784 O.3     
  39 C39            0.6440    16.9802     6.8902 C.3     
  40 O40            0.8848    15.6982     7.4998 O.3     
  41 C41            1.6417    15.0036     6.6010 C.ar    
  42 C42            1.5373    15.6237     5.3579 C.ar    
  43 C43            2.4266    13.8712     6.7422 C.ar    
  44 C44            3.1046    13.3588     5.6514 C.ar    
  45 C45            3.0014    13.9742     4.4182 C.ar    
  46 C46            2.2192    15.1049     4.2698 C.ar    
  47 H47            8.9853     3.9493    -4.9096 H       
  48 H48            9.0283     2.2939    -4.2232 H       
  49 H49            4.7330     3.5754    -6.2233 H       
  50 H50            6.0703     5.4211    -1.8511 H       
  51 H51            1.6520     6.6883    -4.0406 H       
  52 H52            1.6519     5.0396    -3.3304 H       
  53 H53            4.2086     8.1050    -5.0033 H       
  54 H54            4.6196    10.4990    -4.5876 H       
  55 H55            4.3798    11.4090    -2.3130 H       
  56 H56            3.7348     9.9404    -0.4546 H       
  57 H57            3.1943     6.4225     1.1660 H       
  58 H58            3.6822     8.1270     1.0083 H       
  59 H59           -0.5928     8.4920     3.3784 H       
  60 H60           -2.0679     8.8863     1.4498 H       
  61 H61           -1.2180     8.5786    -0.8379 H       
  62 H62            1.1131     7.8864    -1.2118 H       
  63 H63            2.5420     8.3696     6.3132 H       
  64 H64            3.7047     7.6069     5.1965 H       
  65 H65            4.6195     9.6630     6.3464 H       
  66 H66            4.6089     9.7900     4.5706 H       
  67 H67            1.7529    12.0253     4.4208 H       
  68 H68            2.9705    11.1402     3.4699 H       
  69 H69            0.8395     9.9786     3.2612 H       
  70 H70            0.6478     9.9375     5.0338 H       
  71 H71            4.3561    12.0866     6.8217 H       
  72 H72            4.7826    12.1632     5.0953 H       
  73 H73            1.4151    17.6935     7.1812 H       
  74 H74           -0.3445    17.3525     7.1590 H       
  75 H75            2.5097    13.3886     7.7048 H       
  76 H76            3.5324    13.5710     3.5686 H       
  77 H77            2.1398    15.5834     3.3048 H       
@<TRIPOS>BOND
   1    1    2 1
   2    1    5 1
   3    2    3 1
   4    2   47 1
   5    2   48 1
   6    3    4 1
   7    4    5 ar
   8    4    6 ar
   9    5    9 ar
  10    6    7 ar
  11    6   49 1
  12    7    8 ar
  13    7   10 1
  14    8    9 ar
  15    8   11 1
  16    9   50 1
  17   10   12 1
  18   11   12 1
  19   11   14 1
  20   11   15 1
  21   12   51 1
  22   12   52 1
  23   13   14 am
  24   13   20 1
  25   13   22 1
  26   14   21 2
  27   15   16 ar
  28   15   20 ar
  29   16   17 ar
  30   16   53 1
  31   17   18 ar
  32   17   54 1
  33   18   19 ar
  34   18   55 1
  35   19   20 ar
  36   19   56 1
  37   22   23 1
  38   22   57 1
  39   22   58 1
  40   23   24 ar
  41   23   28 ar
  42   24   25 ar
  43   24   29 1
  44   25   26 ar
  45   25   59 1
  46   26   27 ar
  47   26   60 1
  48   27   28 ar
  49   27   61 1
  50   28   62 1
  51   29   30 2
  52   29   31 am
  53   31   32 1
  54   31   36 1
  55   32   33 1
  56   32   63 1
  57   32   64 1
  58   33   34 1
  59   33   65 1
  60   33   66 1
  61   34   35 1
  62   34   37 1
  63   35   36 1
  64   35   67 1
  65   35   68 1
  66   36   69 1
  67   36   70 1
  68   37   44 1
  69   37   71 1
  70   37   72 1
  71   38   39 1
  72   38   42 1
  73   39   40 1
  74   39   73 1
  75   39   74 1
  76   40   41 1
  77   41   42 ar
  78   41   43 ar
  79   42   46 ar
  80   43   44 ar
  81   43   75 1
  82   44   45 ar
  83   45   46 ar
  84   45   76 1
  85   46   77 1

#	End of record

