#	Name: ASD01883809
#	Creating user name:	WinNT
#	Creation time:	15. 06. 2019 19:47

#	Modifying user name:	WinNT
#	Modification time:	15. 06. 2019 19:47

#	Program:	/corina/corina34_cracker 3.40 0067  02.08.2006

@<TRIPOS>MOLECULE
ASD01883809
  58   62    0    0    0
SMALL
NO_CHARGES


@<TRIPOS>ATOM
   1 C1            -0.8716     1.6153    -0.9359 C.ar    
   2 C2            -0.7880     0.2236    -0.9351 C.ar    
   3 C3             0.4357    -0.3929    -1.1284 C.ar    
   4 C4             1.5713     0.3803    -1.3216 C.ar    
   5 C5             1.4963     1.7854    -1.3240 C.ar    
   6 C6             0.2347     2.3835    -1.1244 C.ar    
   7 S7             3.2674    -0.0244    -1.5941 S.3     
   8 N8             3.8306     1.5684    -1.7026 N.am    
   9 C9             2.7993     2.3973    -1.5429 C.2     
  10 O10            2.9398     3.6077    -1.5788 O.2     
  11 O11           -1.9046    -0.5250    -0.7448 O.3     
  12 C12           -3.1328     0.1793    -0.5512 C.3     
  13 C13           -4.2537    -0.8092    -0.3577 C.ar    
  14 C14           -4.5730    -1.2487     0.9109 C.ar    
  15 C15           -5.6100    -2.1624     1.0885 C.ar    
  16 C16           -6.3190    -2.6272    -0.0170 C.ar    
  17 C17           -5.9911    -2.1809    -1.2815 C.ar    
  18 C18           -4.9644    -1.2700    -1.4514 C.ar    
  19 C19           -5.9576    -2.6390     2.4502 C.ar    
  20 C20           -6.2697    -1.7239     3.4496 C.ar    
  21 C21           -6.5959    -2.1793     4.7268 C.ar    
  22 C22           -6.6069    -3.5502     4.9935 C.ar    
  23 C23           -6.2953    -4.4520     3.9958 C.ar    
  24 C24           -5.9773    -4.0056     2.7280 C.ar    
  25 C25            5.2209     1.9691    -1.9328 C.3     
  26 C26            5.3238     2.7959    -3.2264 C.3     
  27 C27            5.8664     4.1821    -2.8215 C.3     
  28 C28            6.6107     3.9239    -1.4879 C.3     
  29 C29            5.7045     2.8817    -0.7868 C.3     
  30 C30           -6.9284    -1.2141     5.7948 C.2     
  31 O31           -7.2431    -1.6560     7.0278 O.3     
  32 O32           -6.9179    -0.0222     5.5611 O.2     
  33 C33           -5.6386    -4.9974     1.6451 C.3     
  34 H34           -1.8303     2.0905    -0.7891 H       
  35 H35            0.5065    -1.4706    -1.1284 H       
  36 H36            0.1464     3.4599    -1.1215 H       
  37 H37           -3.0522     0.8146     0.3308 H       
  38 H38           -3.3394     0.7964    -1.4257 H       
  39 H39           -4.0200    -0.8854     1.7645 H       
  40 H40           -7.1234    -3.3357     0.1150 H       
  41 H41           -6.5401    -2.5405    -2.1392 H       
  42 H42           -4.7112    -0.9234    -2.4425 H       
  43 H43           -6.2593    -0.6650     3.2377 H       
  44 H44           -6.8591    -3.9052     5.9818 H       
  45 H45           -6.3043    -5.5112     4.2064 H       
  46 H46            5.8569     1.0866    -2.0021 H       
  47 H47            6.0105     2.3151    -3.9232 H       
  48 H48            4.3394     2.8990    -3.6829 H       
  49 H49            6.5565     4.5573    -3.5771 H       
  50 H50            5.0460     4.8837    -2.6707 H       
  51 H51            7.6025     3.5112    -1.6728 H       
  52 H52            6.6754     4.8383    -0.8983 H       
  53 H53            4.8579     3.3733    -0.3075 H       
  54 H54            6.2764     2.3078    -0.0577 H       
  55 H55           -7.4533    -0.9869     7.6936 H       
  56 H56           -6.5301    -5.2098     1.0551 H       
  57 H57           -4.8662    -4.5801     0.9990 H       
  58 H58           -5.2743    -5.9195     2.0980 H       
@<TRIPOS>BOND
   1    1    2 ar
   2    1    6 ar
   3    1   34 1
   4    2    3 ar
   5    2   11 1
   6    3    4 ar
   7    3   35 1
   8    4    5 ar
   9    4    7 1
  10    5    6 ar
  11    5    9 1
  12    6   36 1
  13    7    8 1
  14    8    9 am
  15    8   25 1
  16    9   10 2
  17   11   12 1
  18   12   13 1
  19   12   37 1
  20   12   38 1
  21   13   14 ar
  22   13   18 ar
  23   14   15 ar
  24   14   39 1
  25   15   16 ar
  26   15   19 1
  27   16   17 ar
  28   16   40 1
  29   17   18 ar
  30   17   41 1
  31   18   42 1
  32   19   20 ar
  33   19   24 ar
  34   20   21 ar
  35   20   43 1
  36   21   22 ar
  37   21   30 1
  38   22   23 ar
  39   22   44 1
  40   23   24 ar
  41   23   45 1
  42   24   33 1
  43   25   26 1
  44   25   29 1
  45   25   46 1
  46   26   27 1
  47   26   47 1
  48   26   48 1
  49   27   28 1
  50   27   49 1
  51   27   50 1
  52   28   29 1
  53   28   51 1
  54   28   52 1
  55   29   53 1
  56   29   54 1
  57   30   31 1
  58   30   32 2
  59   31   55 1
  60   33   56 1
  61   33   57 1
  62   33   58 1

#	End of record

