#	Name: ASD03720001
#	Creating user name:	WinNT
#	Creation time:	15. 06. 2019 20:43

#	Modifying user name:	WinNT
#	Modification time:	15. 06. 2019 20:43

#	Program:	/corina/corina34_cracker 3.40 0067  02.08.2006

@<TRIPOS>MOLECULE
ASD03720001
  74   76    0    0    0
SMALL
NO_CHARGES


@<TRIPOS>ATOM
   1 C1             0.1582     1.2157     0.2572 C.3     
   2 C2            -0.2139    -0.2933     0.2096 C.3     
   3 C3             1.6564     1.2582     0.3143 C.2     
   4 C4            -0.5905     1.6685     1.5128 C.3     
   5 C5            -1.7120    -0.2904     0.4716 C.3     
   6 C6             0.2831    -0.8452    -1.1061 C.3     
   7 C7             2.3164     1.8504     1.3094 C.2     
   8 C8             2.3692     0.5764    -0.8448 C.3     
   9 C9            -1.9603     0.9458     1.3750 C.3     
  10 C10           -2.4813    -0.1507    -0.8435 C.3     
  11 C11            1.8203    -0.8322    -1.0635 C.3     
  12 C12            3.7811     1.8608     1.3127 C.2     
  13 C13           -3.9820    -0.2735    -0.5719 C.3     
  14 C14           -2.1856     1.2159    -1.4647 C.3     
  15 C15            4.4492     2.4602     2.3198 C.2     
  16 C16           -4.7423    -0.2718    -1.8996 C.3     
  17 C17            3.7394     3.1169     3.4374 C.2     
  18 C18            5.9640     2.4872     2.3631 C.3     
  19 C19           -6.2430    -0.3946    -1.6281 C.3     
  20 C20            4.2831     2.8701     4.8305 C.3     
  21 C21            2.6730     3.8892     3.2302 C.2     
  22 C22            6.4135     2.0981     3.7751 C.3     
  23 C23           -7.0034    -0.3928    -2.9558 C.3     
  24 C24            5.8035     3.0555     4.7951 C.3     
  25 O25            3.9700     1.5374     5.2403 O.3     
  26 O26            7.8386     2.1663     3.8556 O.3     
  27 C27           -8.5086    -0.3899    -2.6815 C.3     
  28 C28           -6.6285     0.8558    -3.7566 C.3     
  29 O29           -6.6578    -1.5601    -3.7041 O.3     
  30 C30            0.4971    -1.0229     1.3511 C.3     
  31 H31           -0.2084     1.7351    -0.6283 H       
  32 H32           -0.0696     1.3406     2.4124 H       
  33 H33           -0.7230     2.7504     1.5145 H       
  34 H34           -2.0079    -1.2038     0.9875 H       
  35 H35           -0.0748    -1.8664    -1.2377 H       
  36 H36           -0.0696    -0.2201    -1.9264 H       
  37 H37            1.7713     2.3226     2.1133 H       
  38 H38            2.2228     1.1634    -1.7515 H       
  39 H39            3.4351     0.5162    -0.6252 H       
  40 H40           -2.3161     0.6278     2.3550 H       
  41 H41           -2.6886     1.6096     0.9091 H       
  42 H42           -2.1710    -0.9373    -1.5312 H       
  43 H43            2.1586    -1.4753    -0.2510 H       
  44 H44            2.2052    -1.2210    -2.0062 H       
  45 H45            4.3263     1.3886     0.5087 H       
  46 H46           -4.1802    -1.2046    -0.0410 H       
  47 H47           -4.3113     0.5688     0.0364 H       
  48 H48           -2.3230     1.9938    -0.7136 H       
  49 H49           -1.1571     1.2363    -1.8250 H       
  50 H50           -2.8661     1.3911    -2.2980 H       
  51 H51           -4.5442     0.6593    -2.4306 H       
  52 H52           -4.4131    -1.1141    -2.5080 H       
  53 H53            6.3647     1.7757     1.6411 H       
  54 H54            6.3202     3.4901     2.1276 H       
  55 H55           -6.4412    -1.3257    -1.0972 H       
  56 H56           -6.5723     0.4477    -1.0197 H       
  57 H57            3.8425     3.5824     5.5281 H       
  58 H58            2.3078     4.0476     2.2262 H       
  59 H59            2.1741     4.3566     4.0663 H       
  60 H60            6.0866     1.0812     3.9921 H       
  61 H61            6.0368     4.0838     4.5188 H       
  62 H62            6.2174     2.8435     5.7809 H       
  63 H63            3.0224     1.3468     5.2681 H       
  64 H64            8.2959     1.5792     3.2381 H       
  65 H65           -8.7722     0.5005    -2.1107 H       
  66 H66           -9.0503    -0.3887    -3.6274 H       
  67 H67           -8.7757    -1.2795    -2.1111 H       
  68 H68           -5.5561     0.8537    -3.9520 H       
  69 H69           -7.1702     0.8571    -4.7024 H       
  70 H70           -6.8921     1.7462    -3.1857 H       
  71 H71           -6.8678    -2.3910    -3.2562 H       
  72 H72            0.0877    -0.6908     2.3052 H       
  73 H73            0.3464    -2.0972     1.2453 H       
  74 H74            1.5635    -0.8003     1.3161 H       
@<TRIPOS>BOND
   1    1    2 1
   2    1    3 1
   3    1    4 1
   4    1   31 1
   5    2    5 1
   6    2    6 1
   7    2   30 1
   8    3    7 2
   9    3    8 1
  10    4    9 1
  11    4   32 1
  12    4   33 1
  13    5   10 1
  14    5    9 1
  15    5   34 1
  16    6   11 1
  17    6   35 1
  18    6   36 1
  19    7   12 1
  20    7   37 1
  21    8   11 1
  22    8   38 1
  23    8   39 1
  24    9   40 1
  25    9   41 1
  26   10   13 1
  27   10   14 1
  28   10   42 1
  29   11   43 1
  30   11   44 1
  31   12   15 2
  32   12   45 1
  33   13   16 1
  34   13   46 1
  35   13   47 1
  36   14   48 1
  37   14   49 1
  38   14   50 1
  39   15   17 1
  40   15   18 1
  41   16   19 1
  42   16   51 1
  43   16   52 1
  44   17   20 1
  45   17   21 2
  46   18   22 1
  47   18   53 1
  48   18   54 1
  49   19   23 1
  50   19   55 1
  51   19   56 1
  52   20   24 1
  53   20   25 1
  54   20   57 1
  55   21   58 1
  56   21   59 1
  57   22   26 1
  58   22   24 1
  59   22   60 1
  60   23   27 1
  61   23   28 1
  62   23   29 1
  63   24   61 1
  64   24   62 1
  65   25   63 1
  66   26   64 1
  67   27   65 1
  68   27   66 1
  69   27   67 1
  70   28   68 1
  71   28   69 1
  72   28   70 1
  73   29   71 1
  74   30   72 1
  75   30   73 1
  76   30   74 1

#	End of record

