#	Name: ASD03430975
#	Creating user name:	WinNT
#	Creation time:	15. 06. 2019 20:41

#	Modifying user name:	WinNT
#	Modification time:	15. 06. 2019 20:41

#	Program:	/corina/corina34_cracker 3.40 0067  02.08.2006

@<TRIPOS>MOLECULE
ASD03430975
  42   46    0    0    0
SMALL
NO_CHARGES


@<TRIPOS>ATOM
   1 O1            -0.0175     1.4360     0.0099 O.3     
   2 C2             0.0021    -0.0041     0.0020 C.3     
   3 C3             1.3441    -0.3164    -0.6738 C.3     
   4 C4             2.1590     0.9220    -0.4113 C.ar    
   5 C5             1.2619     1.9060     0.0002 C.ar    
   6 C6             1.7465     3.1659     0.3285 C.ar    
   7 C7             3.1098     3.4393     0.2349 C.ar    
   8 C8             3.9930     2.4443    -0.1886 C.ar    
   9 C9             3.5081     1.1921    -0.5080 C.ar    
  10 N10            2.1538    -2.4045    -1.1307 N.am    
  11 C11            1.9833    -1.5495    -0.1026 C.2     
  12 C12            1.1831    -0.5940    -2.1389 C.ar    
  13 C13            0.6715     0.1283    -3.1938 C.ar    
  14 C14            0.6628    -0.4148    -4.4662 C.ar    
  15 C15            1.1682    -1.6849    -4.6760 C.ar    
  16 C16            1.6806    -2.4130    -3.6226 C.ar    
  17 C17            1.6947    -1.8738    -2.3385 C.ar    
  18 C18            3.6044     4.7401     0.5723 C.1     
  19 N19            3.9968     5.7720     0.8400 N.1     
  20 C20            2.7511    -3.7355    -0.9968 C.3     
  21 C21            1.6701    -4.7442    -0.7055 C.ar    
  22 C22            1.1065    -5.4609    -1.7444 C.ar    
  23 C23            0.1131    -6.3868    -1.4655 C.ar    
  24 C24           -0.2781    -6.5579    -0.1462 C.ar    
  25 C25            0.3309    -5.8053     0.8398 C.ar    
  26 N26            1.2766    -4.9369     0.5382 N.ar    
  27 O27            2.2866    -1.7389     1.0564 O.2     
  28 H28           -0.0198    -0.3968     1.0186 H       
  29 H29           -0.8275    -0.3990    -0.5844 H       
  30 H30            1.0644     3.9361     0.6570 H       
  31 H31            5.0498     2.6533    -0.2657 H       
  32 H32            4.1886     0.4199    -0.8351 H       
  33 H33            0.2769     1.1198    -3.0277 H       
  34 H34            0.2619     0.1517    -5.2937 H       
  35 H35            1.1612    -2.1089    -5.6693 H       
  36 H36            2.0727    -3.4046    -3.7941 H       
  37 H37            3.2561    -4.0021    -1.9252 H       
  38 H38            3.4723    -3.7296    -0.1796 H       
  39 H39            1.4356    -5.3014    -2.7606 H       
  40 H40           -0.3455    -6.9609    -2.2570 H       
  41 H41           -1.0493    -7.2702     0.1075 H       
  42 H42            0.0320    -5.9327     1.8697 H       
@<TRIPOS>BOND
   1    1    2 1
   2    1    5 1
   3    2    3 1
   4    2   28 1
   5    2   29 1
   6    3    4 1
   7    3   11 1
   8    3   12 1
   9    4    5 ar
  10    4    9 ar
  11    5    6 ar
  12    6    7 ar
  13    6   30 1
  14    7    8 ar
  15    7   18 1
  16    8    9 ar
  17    8   31 1
  18    9   32 1
  19   10   11 am
  20   10   17 1
  21   10   20 1
  22   11   27 2
  23   12   13 ar
  24   12   17 ar
  25   13   14 ar
  26   13   33 1
  27   14   15 ar
  28   14   34 1
  29   15   16 ar
  30   15   35 1
  31   16   17 ar
  32   16   36 1
  33   18   19 3
  34   20   21 1
  35   20   37 1
  36   20   38 1
  37   21   22 ar
  38   21   26 ar
  39   22   23 ar
  40   22   39 1
  41   23   24 ar
  42   23   40 1
  43   24   25 ar
  44   24   41 1
  45   25   26 ar
  46   25   42 1

#	End of record

