#	Name: ASD07820001
#	Creating user name:	WinNT
#	Creation time:	15. 06. 2019 21:11

#	Modifying user name:	WinNT
#	Modification time:	15. 06. 2019 21:11

#	Program:	/corina/corina34_cracker 3.40 0067  02.08.2006

@<TRIPOS>MOLECULE
ASD07820001
  35   35    0    0    0
SMALL
NO_CHARGES


@<TRIPOS>ATOM
   1 O1            -0.0173     1.4248     0.0099 O.3     
   2 C2             0.0021    -0.0041     0.0020 C.3     
   3 C3             0.7110    -0.5509     1.2597 C.3     
   4 O4            -0.3009    -0.8758     2.2201 O.3     
   5 C5            -1.5975    -0.5453     1.6975 C.3     
   6 C6            -1.4330    -0.5772     0.1572 C.3     
   7 O7            -2.3955     0.2645    -0.4810 O.3     
   8 C8            -2.6298    -1.5830     2.1430 C.3     
   9 O9            -2.8043    -1.5039     3.5591 O.3     
  10 P10           -3.8194    -2.4532     4.3719 P.3     
  11 O11           -3.5072    -3.8708     4.0833 O.2     
  12 O12           -3.6622    -2.1796     5.9506 O.3     
  13 O13           -5.3312    -2.1338     3.9197 O.3     
  14 O14            1.5853     0.4447     1.7948 O.3     
  15 P15            2.9372     0.0872     2.5928 P.3     
  16 O16            2.6200    -0.8177     3.7201 O.2     
  17 O17            3.5989     1.4406     3.1609 O.3     
  18 P18            4.7349     1.7553     4.2574 P.3     
  19 O19            5.8823     0.8426     4.0551 O.2     
  20 O20            5.2273     3.2798     4.0977 O.3     
  21 O21            4.1305     1.5384     5.7338 O.3     
  22 O22            3.9724    -0.6391     1.5964 O.3     
  23 H23            0.8606     1.8301     0.0037 H       
  24 H24            0.4769    -0.3789    -0.9047 H       
  25 H25            1.2793    -1.4452     1.0045 H       
  26 H26           -1.8951     0.4506     2.0258 H       
  27 H27           -1.4920    -1.5969    -0.2232 H       
  28 H28           -2.3300     0.2757    -1.4458 H       
  29 H29           -3.5806    -1.3853     1.6481 H       
  30 H30           -2.2813    -2.5805     1.8750 H       
  31 H31           -4.2451    -2.7183     6.5031 H       
  32 H32           -5.6049    -1.2202     4.0797 H       
  33 H33            5.9132     3.5397     4.7279 H       
  34 H34            3.3737     2.1054     5.9362 H       
  35 H35            4.2253    -0.1027     0.8326 H       
@<TRIPOS>BOND
   1    1    2 1
   2    1   23 1
   3    2    3 1
   4    2    6 1
   5    2   24 1
   6    3    4 1
   7    3   14 1
   8    3   25 1
   9    4    5 1
  10    5    6 1
  11    5    8 1
  12    5   26 1
  13    6    7 1
  14    6   27 1
  15    7   28 1
  16    8    9 1
  17    8   29 1
  18    8   30 1
  19    9   10 1
  20   10   11 2
  21   10   12 1
  22   10   13 1
  23   12   31 1
  24   13   32 1
  25   14   15 1
  26   15   16 2
  27   15   17 1
  28   15   22 1
  29   17   18 1
  30   18   19 2
  31   18   20 1
  32   18   21 1
  33   20   33 1
  34   21   34 1
  35   22   35 1

#	End of record

