#	Name: ASD03731517
#	Creating user name:	WinNT
#	Creation time:	15. 06. 2019 20:45

#	Modifying user name:	WinNT
#	Modification time:	15. 06. 2019 20:45

#	Program:	/corina/corina34_cracker 3.40 0067  02.08.2006

@<TRIPOS>MOLECULE
ASD03731517
  57   62    0    0    0
SMALL
NO_CHARGES


@<TRIPOS>ATOM
   1 N1            -0.0179     1.4660     0.0101 N.am    
   2 C2             0.0021    -0.0041     0.0020 C.3     
   3 C3             1.4817    -0.4423     0.0128 C.3     
   4 C4             2.2073     0.7983     0.5975 C.3     
   5 C5             1.3719     1.9577    -0.0005 C.3     
   6 C6            -1.1236     2.2365     0.0197 C.2     
   7 O7            -2.2244     1.7202     0.0223 O.2     
   8 N8            -1.0092     3.5794     0.0265 N.am    
   9 C9            -2.2111     4.4169     0.0369 C.3     
  10 C10           -1.8048     5.8920     0.0429 C.3     
  11 C11           -3.0601     6.7667     0.0538 C.3     
  12 O12            2.8152    10.3097    -2.0954 O.3     
  13 C13            3.5635    11.5163    -2.3348 C.3     
  14 O14            2.5783    12.4349    -2.8431 O.3     
  15 C15            1.3881    12.0245    -2.3141 C.ar    
  16 C16            1.5341    10.7173    -1.8555 C.ar    
  17 C17            0.1724    12.6715    -2.1838 C.ar    
  18 C18           -0.9114    12.0246    -1.5977 C.ar    
  19 C19           -0.7556    10.7159    -1.1508 C.ar    
  20 C20            0.4570    10.0702    -1.2738 C.ar    
  21 O21           -2.1747    12.4806    -1.3602 O.3     
  22 C22           -2.0903    10.2886    -0.6014 C.3     
  23 C23           -3.0508    11.3588    -1.1378 C.3     
  24 N24           -2.6710     8.1791     0.0596 N.am    
  25 C25           -2.4772     8.9107    -1.0558 C.2     
  26 C26           -2.0985    10.2301     0.8974 C.ar    
  27 C27           -1.8377    11.1515     1.8869 C.ar    
  28 C28           -1.9334    10.7852     3.2176 C.ar    
  29 C29           -2.2908     9.4914     3.5513 C.ar    
  30 C30           -2.5520     8.5646     2.5638 C.ar    
  31 C31           -2.4586     8.9247     1.2217 C.ar    
  32 O32           -2.5929     8.5307    -2.2018 O.2     
  33 H33           -0.5043    -0.3865     0.8883 H       
  34 H34           -0.4883    -0.3765    -0.8974 H       
  35 H35            1.6222    -1.3103     0.6569 H       
  36 H36            1.8295    -0.6512    -0.9989 H       
  37 H37            2.1582     0.8025     1.6863 H       
  38 H38            3.2409     0.8441     0.2544 H       
  39 H39            1.6918     2.1688    -1.0209 H       
  40 H40            1.4634     2.8499     0.6189 H       
  41 H41           -0.1310     3.9913     0.0244 H       
  42 H42           -2.8073     4.2079    -0.8513 H       
  43 H43           -2.7986     4.1982     0.9286 H       
  44 H44           -1.2086     6.1010     0.9311 H       
  45 H45           -1.2173     6.1107    -0.8488 H       
  46 H46           -3.6563     6.5577    -0.8344 H       
  47 H47           -3.6476     6.5480     0.9455 H       
  48 H48            3.9933    11.8910    -1.4058 H       
  49 H49            4.3435    11.3424    -3.0760 H       
  50 H50            0.0636    13.6855    -2.5394 H       
  51 H51            0.5665     9.0572    -0.9157 H       
  52 H52           -3.8116    11.6028    -0.3964 H       
  53 H53           -3.5091    11.0344    -2.0720 H       
  54 H54           -1.5586    12.1612     1.6241 H       
  55 H55           -1.7298    11.5078     3.9940 H       
  56 H56           -2.3654     9.2054     4.5901 H       
  57 H57           -2.8300     7.5561     2.8323 H       
@<TRIPOS>BOND
   1    1    2 1
   2    1    5 1
   3    1    6 am
   4    2    3 1
   5    2   33 1
   6    2   34 1
   7    3    4 1
   8    3   35 1
   9    3   36 1
  10    4    5 1
  11    4   37 1
  12    4   38 1
  13    5   39 1
  14    5   40 1
  15    6    7 2
  16    6    8 am
  17    8    9 1
  18    8   41 1
  19    9   10 1
  20    9   42 1
  21    9   43 1
  22   10   11 1
  23   10   44 1
  24   10   45 1
  25   11   24 1
  26   11   46 1
  27   11   47 1
  28   12   13 1
  29   12   16 1
  30   13   14 1
  31   13   48 1
  32   13   49 1
  33   14   15 1
  34   15   16 ar
  35   15   17 ar
  36   16   20 ar
  37   17   18 ar
  38   17   50 1
  39   18   19 ar
  40   18   21 1
  41   19   20 ar
  42   19   22 1
  43   20   51 1
  44   21   23 1
  45   22   23 1
  46   22   25 1
  47   22   26 1
  48   23   52 1
  49   23   53 1
  50   24   25 am
  51   24   31 1
  52   25   32 2
  53   26   27 ar
  54   26   31 ar
  55   27   28 ar
  56   27   54 1
  57   28   29 ar
  58   28   55 1
  59   29   30 ar
  60   29   56 1
  61   30   31 ar
  62   30   57 1

#	End of record

