#	Name: ASD01901341
#	Creating user name:	WinNT
#	Creation time:	15. 06. 2019 19:53

#	Modifying user name:	WinNT
#	Modification time:	15. 06. 2019 19:53

#	Program:	/corina/corina34_cracker 3.40 0067  02.08.2006

@<TRIPOS>MOLECULE
ASD01901341
  37   40    0    0    0
SMALL
NO_CHARGES


@<TRIPOS>ATOM
   1 C1            -0.0169     1.3948     0.0097 C.ar    
   2 C2             1.1813     2.0804     0.0020 C.ar    
   3 N3             2.3313     1.4334    -0.0125 N.ar    
   4 C4             2.3923     0.1156    -0.0202 C.ar    
   5 C5             1.2427    -0.6472    -0.0133 C.ar    
   6 C6             0.0021    -0.0041     0.0020 C.ar    
   7 C7            -1.2602    -0.7833     0.0099 C.2     
   8 N8            -3.1574    -1.5794    -1.1483 N.2     
   9 C9            -2.0432    -0.8899    -1.1605 C.2     
  10 C10           -1.6790    -1.4132     1.1489 C.2     
  11 N11           -2.8434    -2.1207     1.1218 N.pl3   
  12 C12           -3.5788    -2.1958    -0.0334 C.2     
  13 C13           -3.5115    -2.8429     2.0739 C.2     
  14 C14           -4.6237    -3.3363     1.4895 C.2     
  15 N15           -4.6504    -2.9347     0.2151 N.2     
  16 C16           -5.6625    -4.1962     2.1622 C.3     
  17 O17           -5.2911    -4.4137     3.5248 O.3     
  18 C18           -6.1273    -5.1753     4.2782 C.ar    
  19 C19           -7.2787    -5.7071     3.7159 C.ar    
  20 C20           -5.8281    -5.4271     5.6092 C.ar    
  21 C21           -6.6798    -6.2015     6.3729 C.ar    
  22 C22           -7.8294    -6.7260     5.8116 C.ar    
  23 C23           -8.1272    -6.4809     4.4838 C.ar    
  24 Cl24          -1.5243     2.2555     0.0359 Cl      
  25 H25            1.1775     3.1604     0.0074 H       
  26 H26            3.3555    -0.3728    -0.0323 H       
  27 H27            1.3007    -1.7256    -0.0200 H       
  28 H28           -1.7228    -0.4012    -2.0687 H       
  29 H29           -1.0960    -1.3512     2.0559 H       
  30 H30           -3.2060    -2.9903     3.0993 H       
  31 H31           -6.6293    -3.6941     2.1248 H       
  32 H32           -5.7304    -5.1541     1.6467 H       
  33 H33           -7.5118    -5.5160     2.6788 H       
  34 H34           -4.9299    -5.0182     6.0480 H       
  35 H35           -6.4473    -6.3977     7.4092 H       
  36 H36           -8.4937    -7.3318     6.4101 H       
  37 H37           -9.0237    -6.8951     4.0466 H       
@<TRIPOS>BOND
   1    1    6 ar
   2    1    2 ar
   3    1   24 1
   4    2    3 ar
   5    2   25 1
   6    3    4 ar
   7    4    5 ar
   8    4   26 1
   9    5    6 ar
  10    5   27 1
  11    6    7 1
  12    7   10 2
  13    7    9 1
  14    8    9 2
  15    8   12 1
  16    9   28 1
  17   10   11 1
  18   10   29 1
  19   11   13 1
  20   11   12 1
  21   12   15 2
  22   13   14 2
  23   13   30 1
  24   14   15 1
  25   14   16 1
  26   16   17 1
  27   16   31 1
  28   16   32 1
  29   17   18 1
  30   18   20 ar
  31   18   19 ar
  32   19   23 ar
  33   19   33 1
  34   20   21 ar
  35   20   34 1
  36   21   22 ar
  37   21   35 1
  38   22   23 ar
  39   22   36 1
  40   23   37 1

#	End of record

