#	Name: ASD03160002
#	Creating user name:	WinNT
#	Creation time:	15. 06. 2019 20:33

#	Modifying user name:	WinNT
#	Modification time:	15. 06. 2019 20:33

#	Program:	/corina/corina34_cracker 3.40 0067  02.08.2006

@<TRIPOS>MOLECULE
ASD03160002
  44   48    0    0    0
SMALL
NO_CHARGES


@<TRIPOS>ATOM
   1 C1            -0.4237     1.3372     0.9262 C.ar    
   2 C2            -0.2855    -0.0287     0.6556 C.ar    
   3 C3            -1.4410    -0.7734     0.4687 C.ar    
   4 C4            -2.7270    -0.3044     0.6025 C.ar    
   5 C5            -2.8511     1.0493     0.8616 C.ar    
   6 C6            -1.7217     1.8360     1.0168 C.ar    
   7 C7            -1.0270    -2.1906     0.1565 C.3     
   8 C8            -2.0724    -3.0789     0.8105 C.3     
   9 C9            -3.4358    -2.6943     0.2281 C.3     
  10 C10           -3.8663    -1.2689     0.5318 C.3     
  11 C11            0.3811    -2.2147     0.7368 C.3     
  12 C12            0.3796    -2.5162     2.2065 C.2     
  13 C13           -0.7135    -3.2897     2.8807 C.3     
  14 C14           -2.0742    -2.8671     2.3236 C.3     
  15 C15           -1.0225    -2.4072    -1.3548 C.3     
  16 N16           -3.4200    -2.9215    -1.2230 N.3     
  17 C17           -2.4200    -2.0861    -1.8980 C.3     
  18 C18           -4.7543    -2.7171    -1.8024 C.3     
  19 O19            0.8016    -0.8262     0.5773 O.3     
  20 C20            1.2833    -3.1850    -0.0283 C.3     
  21 O21            0.6599     2.1406     1.0986 O.3     
  22 O22            1.3014    -2.1178     2.8772 O.2     
  23 O23           -1.7927    -4.4479     0.5113 O.3     
  24 H24           -4.1823    -3.3672     0.6501 H       
  25 H25           -3.8319     1.4931     0.9476 H       
  26 H26           -1.8535     2.8906     1.2087 H       
  27 H27           -4.3918    -1.2589     1.4867 H       
  28 H28           -4.5550    -0.9391    -0.2460 H       
  29 H29           -0.5650    -4.3549     2.7036 H       
  30 H30           -0.6855    -3.0956     3.9529 H       
  31 H31           -2.2488    -1.8142     2.5450 H       
  32 H32           -2.8588    -3.4731     2.7765 H       
  33 H33           -0.2894    -1.7462    -1.8171 H       
  34 H34           -0.7738    -3.4453    -1.5750 H       
  35 H35           -2.6456    -1.0349    -1.7189 H       
  36 H36           -2.4464    -2.2839    -2.9695 H       
  37 H37           -5.0275    -1.6649    -1.7233 H       
  38 H38           -4.7438    -3.0119    -2.8518 H       
  39 H39           -5.4817    -3.3230    -1.2621 H       
  40 H40            1.3446    -2.8776    -1.0723 H       
  41 H41            2.2805    -3.1777     0.4117 H       
  42 H42            0.8676    -4.1909     0.0305 H       
  43 H43            0.9832     2.5456     0.2822 H       
  44 H44           -2.4222    -5.0717     0.8982 H       
@<TRIPOS>BOND
   1    1    2 ar
   2    1   21 1
   3    1    6 ar
   4    2    3 ar
   5    2   19 1
   6    3    4 ar
   7    3    7 1
   8    4    5 ar
   9    4   10 1
  10    5    6 ar
  11    5   25 1
  12    6   26 1
  13    7    8 1
  14    7   15 1
  15    7   11 1
  16    8    9 1
  17    8   23 1
  18    8   14 1
  19    9   10 1
  20    9   16 1
  21    9   24 1
  22   10   27 1
  23   10   28 1
  24   11   12 1
  25   11   19 1
  26   11   20 1
  27   12   13 1
  28   12   22 2
  29   13   14 1
  30   13   29 1
  31   13   30 1
  32   14   31 1
  33   14   32 1
  34   15   17 1
  35   15   33 1
  36   15   34 1
  37   16   17 1
  38   16   18 1
  39   17   35 1
  40   17   36 1
  41   18   37 1
  42   18   38 1
  43   18   39 1
  44   20   40 1
  45   20   41 1
  46   20   42 1
  47   21   43 1
  48   23   44 1

#	End of record

