#	Name: ASD01884275
#	Creating user name:	WinNT
#	Creation time:	15. 06. 2019 19:47

#	Modifying user name:	WinNT
#	Modification time:	15. 06. 2019 19:47

#	Program:	/corina/corina34_cracker 3.40 0067  02.08.2006

@<TRIPOS>MOLECULE
ASD01884275
  45   48    0    0    0
SMALL
NO_CHARGES


@<TRIPOS>ATOM
   1 C1            -0.0169     1.3924     0.0097 C.ar    
   2 C2             0.0021    -0.0041     0.0020 C.ar    
   3 C3            -1.1668    -0.7201     0.0098 C.ar    
   4 C4            -2.4131    -0.0688     0.0257 C.ar    
   5 C5            -2.4159     1.3297     0.0332 C.ar    
   6 C6            -1.2438     2.0560     0.0308 C.ar    
   7 N7            -3.6667    -0.6418     0.0351 N.am    
   8 C8            -4.7389     0.1557     0.0500 C.2     
   9 S9            -4.1173     1.8146     0.0528 S.3     
  10 O10           -5.9063    -0.1881     0.0595 O.2     
  11 C11           -3.8209    -2.0987     0.0283 C.3     
  12 C12           -3.8601    -2.6141     1.4684 C.3     
  13 C13           -4.1345    -4.1046     1.6780 C.3     
  14 C14           -2.7310    -3.5442     1.9167 C.3     
  15 F15           -1.7418    -3.8582     0.9786 F       
  16 F16           -2.2945    -3.4381     3.2417 F       
  17 B17            1.3262     2.2054     0.0012 Du      
  18 O18            2.6632     1.6853    -0.0143 O.3     
  19 O19            1.4853     3.6313     0.0010 O.3     
  20 C20            2.6014     3.8744     0.8831 C.3     
  21 C21            3.4023     2.5512     0.8726 C.3     
  22 C22            3.4599     1.9517     2.2791 C.3     
  23 C23            3.4623     5.0213     0.3499 C.3     
  24 C24            4.8149     2.7872     0.3343 C.3     
  25 C25            2.1055     4.1905     2.2956 C.3     
  26 H26            0.9478    -0.5254    -0.0105 H       
  27 H27           -1.1301    -1.7994     0.0033 H       
  28 H28           -1.2756     3.1355     0.0372 H       
  29 H29           -4.7494    -2.3634    -0.4777 H       
  30 H30           -2.9794    -2.5507    -0.4966 H       
  31 H31           -4.2631    -1.9196     2.2055 H       
  32 H32           -4.7177    -4.3907     2.5533 H       
  33 H33           -4.2871    -4.7180     0.7901 H       
  34 H34            2.4476     1.7512     2.6303 H       
  35 H35            4.0269     1.0211     2.2546 H       
  36 H36            3.9460     2.6557     2.9545 H       
  37 H37            2.8665     5.9331     0.3064 H       
  38 H38            4.3138     5.1750     1.0127 H       
  39 H39            3.8199     4.7730    -0.6494 H       
  40 H40            5.3296     3.5088     0.9687 H       
  41 H41            5.3654     1.8465     0.3334 H       
  42 H42            4.7560     3.1747    -0.6828 H       
  43 H43            1.5081     3.3574     2.6659 H       
  44 H44            2.9600     4.3460     2.9543 H       
  45 H45            1.4953     5.0934     2.2729 H       
@<TRIPOS>BOND
   1    1    2 ar
   2    1   17 1
   3    1    6 ar
   4    2    3 ar
   5    2   26 1
   6    3    4 ar
   7    3   27 1
   8    4    5 ar
   9    4    7 1
  10    5    6 ar
  11    5    9 1
  12    6   28 1
  13    7    8 am
  14    7   11 1
  15    8    9 1
  16    8   10 2
  17   11   12 1
  18   11   29 1
  19   11   30 1
  20   12   13 1
  21   12   14 1
  22   12   31 1
  23   13   14 1
  24   13   32 1
  25   13   33 1
  26   14   15 1
  27   14   16 1
  28   17   18 1
  29   17   19 1
  30   18   21 1
  31   19   20 1
  32   20   21 1
  33   20   23 1
  34   20   25 1
  35   21   22 1
  36   21   24 1
  37   22   34 1
  38   22   35 1
  39   22   36 1
  40   23   37 1
  41   23   38 1
  42   23   39 1
  43   24   40 1
  44   24   41 1
  45   24   42 1
  46   25   43 1
  47   25   44 1
  48   25   45 1

#	End of record

