#	Name: ASD01883316
#	Creating user name:	WinNT
#	Creation time:	15. 06. 2019 19:46

#	Modifying user name:	WinNT
#	Modification time:	15. 06. 2019 19:46

#	Program:	/corina/corina34_cracker 3.40 0067  02.08.2006

@<TRIPOS>MOLECULE
ASD01883316
  60   63    0    0    0
SMALL
NO_CHARGES


@<TRIPOS>ATOM
   1 N1             0.0038     1.3058     0.0348 N.am    
   2 C2            -0.8400     1.5171    -0.9925 C.2     
   3 C3            -2.0913     0.8553    -1.0252 C.2     
   4 C4            -2.4225    -0.0124     0.0251 C.2     
   5 C5            -1.5011    -0.1924     1.0696 C.2     
   6 C6            -0.3173     0.4608     1.0477 C.2     
   7 O7            -0.5274     2.2772    -1.8932 O.2     
   8 C8            -3.0014     1.0685    -2.1100 C.1     
   9 N9            -3.7233     1.2377    -2.9706 N.1     
  10 C10            1.2956     1.9964     0.0573 C.3     
  11 C11            1.1482     3.3147     0.7724 C.ar    
  12 C12            1.3477     3.3849     2.1387 C.ar    
  13 C13            1.2131     4.5922     2.7965 C.ar    
  14 C14            0.8774     5.7348     2.0849 C.ar    
  15 C15            0.6777     5.6618     0.7140 C.ar    
  16 C16            0.8190     4.4531     0.0600 C.ar    
  17 O17           -3.6076    -0.6636     0.0325 O.3     
  18 C18           -3.5664    -2.0870    -0.0870 C.3     
  19 C19           -4.9703    -2.6342    -0.0598 C.ar    
  20 C20           -5.6756    -2.7869    -1.2388 C.ar    
  21 C21           -6.9634    -3.2888    -1.2138 C.ar    
  22 C22           -7.5457    -3.6384    -0.0098 C.ar    
  23 C23           -6.8401    -3.4865     1.1691 C.ar    
  24 C24           -5.5508    -2.9887     1.1437 C.ar    
  25 C25           -8.9500    -4.1846     0.0175 C.3     
  26 N26           -8.9088    -5.6478    -0.1063 N.3     
  27 C27          -10.2310    -6.2359     0.1528 C.3     
  28 C28          -10.1567    -7.7522    -0.0449 C.3     
  29 O29           -9.1471    -8.2909     0.8129 O.3     
  30 C30           -7.8464    -7.7406     0.5874 C.3     
  31 C31           -7.8973    -6.2242     0.7915 C.3     
  32 O32            0.7440     6.9236     2.7298 O.3     
  33 C33            0.3966     8.0582     1.9335 C.3     
  34 F34           -0.8336     7.8298     1.3078 F       
  35 F35            0.3013     9.1898     2.7506 F       
  36 F36            1.3822     8.2658     0.9625 F       
  37 H37           -1.7364    -0.8560     1.8886 H       
  38 H38            0.3832     0.3140     1.8564 H       
  39 H39            2.0280     1.3801     0.5789 H       
  40 H40            1.6311     2.1729    -0.9646 H       
  41 H41            1.6087     2.4950     2.6923 H       
  42 H42            1.3688     4.6464     3.8639 H       
  43 H43            0.4163     6.5499     0.1578 H       
  44 H44            0.6637     4.3957    -1.0072 H       
  45 H45           -3.0887    -2.3589    -1.0282 H       
  46 H46           -2.9974    -2.5050     0.7434 H       
  47 H47           -5.2206    -2.5138    -2.1794 H       
  48 H48           -7.5147    -3.4074    -2.1349 H       
  49 H49           -7.2952    -3.7593     2.1098 H       
  50 H50           -4.9995    -2.8700     2.0648 H       
  51 H51           -9.4273    -3.9129     0.9590 H       
  52 H52           -9.5190    -3.7656    -0.8124 H       
  53 H53          -10.5325    -6.0167     1.1770 H       
  54 H54          -10.9591    -5.8138    -0.5399 H       
  55 H55          -11.1199    -8.1990     0.2014 H       
  56 H56           -9.9076    -7.9722    -1.0830 H       
  57 H57           -7.1387    -8.1790     1.2910 H       
  58 H58           -7.5301    -7.9602    -0.4323 H       
  59 H59           -6.9219    -5.7935     0.5651 H       
  60 H60           -8.1615    -6.0048     1.8260 H       
@<TRIPOS>BOND
   1    1    2 am
   2    1   10 1
   3    1    6 1
   4    2    3 1
   5    2    7 2
   6    3    4 2
   7    3    8 1
   8    4    5 1
   9    4   17 1
  10    5    6 2
  11    5   37 1
  12    6   38 1
  13    8    9 3
  14   10   11 1
  15   10   39 1
  16   10   40 1
  17   11   12 ar
  18   11   16 ar
  19   12   13 ar
  20   12   41 1
  21   13   14 ar
  22   13   42 1
  23   14   15 ar
  24   14   32 1
  25   15   16 ar
  26   15   43 1
  27   16   44 1
  28   17   18 1
  29   18   19 1
  30   18   45 1
  31   18   46 1
  32   19   20 ar
  33   19   24 ar
  34   20   21 ar
  35   20   47 1
  36   21   22 ar
  37   21   48 1
  38   22   23 ar
  39   22   25 1
  40   23   24 ar
  41   23   49 1
  42   24   50 1
  43   25   26 1
  44   25   51 1
  45   25   52 1
  46   26   27 1
  47   26   31 1
  48   27   28 1
  49   27   53 1
  50   27   54 1
  51   28   29 1
  52   28   55 1
  53   28   56 1
  54   29   30 1
  55   30   31 1
  56   30   57 1
  57   30   58 1
  58   31   59 1
  59   31   60 1
  60   32   33 1
  61   33   34 1
  62   33   35 1
  63   33   36 1

#	End of record

