#	Name: ASD00310169
#	Creating user name:	WinNT
#	Creation time:	15. 06. 2019 18:33

#	Modifying user name:	WinNT
#	Modification time:	15. 06. 2019 18:33

#	Program:	/corina/corina34_cracker 3.40 0067  02.08.2006

@<TRIPOS>MOLECULE
ASD00310169
  43   46    0    0    0
SMALL
NO_CHARGES


@<TRIPOS>ATOM
   1 N1            -0.0163     1.3506     0.0061 N.pl3   
   2 C2             0.0019    -0.0039    -0.0181 C.2     
   3 C3             1.2916    -0.4475    -0.0407 C.2     
   4 C4             2.1468     0.7552    -0.0293 C.ar    
   5 C5             3.5243     0.9598    -0.0415 C.ar    
   6 C6             4.0256     2.2573    -0.0243 C.ar    
   7 C7             3.1466     3.3466     0.0051 C.ar    
   8 C8             1.7844     3.1447     0.0172 C.ar    
   9 C9             1.2693     1.8506     0.0002 C.ar    
  10 C10            1.7400    -1.8443    -0.0706 C.2     
  11 O11            2.9285    -2.1011    -0.0883 O.2     
  12 O12            0.8342    -2.8431    -0.0784 O.3     
  13 C13            5.4910     2.4867    -0.0365 C.ar    
  14 C14            6.0912     3.1172    -1.1249 C.ar    
  15 C15            7.4550     3.3285    -1.1307 C.ar    
  16 C16            8.2261     2.9152    -0.0592 C.ar    
  17 C17            7.6358     2.2884     1.0235 C.ar    
  18 C18            6.2720     2.0776     1.0428 C.ar    
  19 C19            9.7149     3.1483    -0.0717 C.3     
  20 C20           10.1067     4.6157    -0.3123 C.3     
  21 C21           11.2064     4.4132     0.7435 C.3     
  22 C22           10.3269     3.2970     1.3313 C.3     
  23 C23           10.4636     2.1592    -0.9673 C.3     
  24 O24           10.0600     0.8264    -0.6467 O.3     
  25 F25            3.6382     4.6049     0.0222 F       
  26 F26            4.3682    -0.0949    -0.0694 F       
  27 H27           -0.8205     1.8928     0.0212 H       
  28 H28           -0.8730    -0.6370    -0.0192 H       
  29 H29            1.1143     3.9913     0.0402 H       
  30 H30            1.1775    -3.7469    -0.0983 H       
  31 H31            5.4902     3.4396    -1.9623 H       
  32 H32            7.9212     3.8170    -1.9736 H       
  33 H33            8.2427     1.9676     1.8572 H       
  34 H34            5.8116     1.5924     1.8908 H       
  35 H35           10.4927     4.8060    -1.3137 H       
  36 H36            9.3383     5.3278    -0.0113 H       
  37 H37           12.1485     4.0543     0.3293 H       
  38 H38           11.3336     5.2658     1.4106 H       
  39 H39            9.6187     3.6485     2.0816 H       
  40 H40           10.8906     2.4226     1.6566 H       
  41 H41           10.2320     2.3677    -2.0118 H       
  42 H42           11.5365     2.2628    -0.8054 H       
  43 H43           10.4956     0.1452    -1.1770 H       
@<TRIPOS>BOND
   1    1    2 1
   2    1    9 1
   3    1   27 1
   4    2    3 2
   5    2   28 1
   6    3    4 1
   7    3   10 1
   8    4    5 ar
   9    4    9 ar
  10    5    6 ar
  11    5   26 1
  12    6    7 ar
  13    6   13 1
  14    7    8 ar
  15    7   25 1
  16    8    9 ar
  17    8   29 1
  18   10   11 2
  19   10   12 1
  20   12   30 1
  21   13   14 ar
  22   13   18 ar
  23   14   15 ar
  24   14   31 1
  25   15   16 ar
  26   15   32 1
  27   16   17 ar
  28   16   19 1
  29   17   18 ar
  30   17   33 1
  31   18   34 1
  32   19   20 1
  33   19   22 1
  34   19   23 1
  35   20   21 1
  36   20   35 1
  37   20   36 1
  38   21   22 1
  39   21   37 1
  40   21   38 1
  41   22   39 1
  42   22   40 1
  43   23   24 1
  44   23   41 1
  45   23   42 1
  46   24   43 1

#	End of record

