#	Name: ASD03090245
#	Creating user name:	WinNT
#	Creation time:	15. 06. 2019 20:28

#	Modifying user name:	WinNT
#	Modification time:	15. 06. 2019 20:28

#	Program:	/corina/corina34_cracker 3.40 0067  02.08.2006

@<TRIPOS>MOLECULE
ASD03090245
  49   52    0    0    0
SMALL
NO_CHARGES


@<TRIPOS>ATOM
   1 C1             0.1985     1.0528     0.8599 C.ar    
   2 N2            -0.9117     1.4732     1.4354 N.ar    
   3 C3            -2.0577     0.8437     1.2784 C.ar    
   4 C4            -2.1347    -0.3033     0.4881 C.ar    
   5 C5            -0.9741    -0.7737    -0.1354 C.ar    
   6 C6             0.2039    -0.0727     0.0564 C.ar    
   7 C7            -3.4224    -1.0109     0.3128 C.2     
   8 N8            -6.9280    -1.2507     0.4154 N.pl3   
   9 C9            -7.4283    -0.0681     0.9702 C.ar    
  10 C10           -6.6956     0.6123     1.9338 C.ar    
  11 C11           -7.1916     1.7799     2.4803 C.ar    
  12 C12           -8.4185     2.2717     2.0684 C.ar    
  13 C13           -9.1510     1.5948     1.1074 C.ar    
  14 C14           -8.6562     0.4305     0.5539 C.ar    
  15 N15           -4.6195    -0.5120     0.5480 N.2     
  16 C16           -5.5500    -1.4301     0.2804 C.2     
  17 N17           -4.9610    -2.5296    -0.1300 N.2     
  18 N18           -3.5790    -2.2810    -0.1226 N.pl3   
  19 C19           -2.5170    -3.2155    -0.5035 C.3     
  20 C20           -2.2724    -3.1227    -2.0110 C.3     
  21 F21           -8.9022     3.4134     2.6049 F       
  22 C22           -1.0813    -4.0052    -2.3897 C.3     
  23 O23           -3.4363    -3.5675    -2.7106 O.3     
  24 C24            1.4804     1.8151     1.0766 C.3     
  25 C25            2.4102     1.3312     2.1911 C.3     
  26 C26            2.7909     1.1075     0.7261 C.3     
  27 C27          -10.4861     2.1326     0.6611 C.3     
  28 F28          -11.0305     1.2833    -0.3082 F       
  29 F29          -11.3510     2.2029     1.7584 F       
  30 F30          -10.3162     3.4109     0.1186 F       
  31 H31           -2.9455     1.2185     1.7660 H       
  32 H32           -0.9976    -1.6586    -0.7541 H       
  33 H33            1.1195    -0.4064    -0.4094 H       
  34 H34           -7.5384    -1.9461     0.1245 H       
  35 H35           -5.7388     0.2287     2.2560 H       
  36 H36           -6.6221     2.3094     3.2298 H       
  37 H37           -9.2275    -0.0969    -0.1957 H       
  38 H38           -1.6009    -2.9613     0.0296 H       
  39 H39           -2.8172    -4.2312    -0.2460 H       
  40 H40           -2.0590    -2.0886    -2.2814 H       
  41 H41           -1.2948    -5.0393    -2.1193 H       
  42 H42           -0.9071    -3.9390    -3.4636 H       
  43 H43           -0.1935    -3.6659    -1.8560 H       
  44 H44           -3.6858    -4.4817    -2.5178 H       
  45 H45            1.4246     2.8890     0.8984 H       
  46 H46            2.9665     2.0867     2.7459 H       
  47 H47            2.0949     0.4615     2.7675 H       
  48 H48            2.7259     0.0907     0.3389 H       
  49 H49            3.5976     1.7159     0.3172 H       
@<TRIPOS>BOND
   1    1    2 ar
   2    1   24 1
   3    1    6 ar
   4    2    3 ar
   5    3    4 ar
   6    3   31 1
   7    4    5 ar
   8    4    7 1
   9    5    6 ar
  10    5   32 1
  11    6   33 1
  12    7   15 2
  13    7   18 1
  14    8    9 1
  15    8   16 1
  16    8   34 1
  17    9   10 ar
  18    9   14 ar
  19   10   11 ar
  20   10   35 1
  21   11   12 ar
  22   11   36 1
  23   12   13 ar
  24   12   21 1
  25   13   14 ar
  26   13   27 1
  27   14   37 1
  28   15   16 1
  29   16   17 2
  30   17   18 1
  31   18   19 1
  32   19   20 1
  33   19   38 1
  34   19   39 1
  35   20   22 1
  36   20   23 1
  37   20   40 1
  38   22   41 1
  39   22   42 1
  40   22   43 1
  41   23   44 1
  42   24   25 1
  43   24   26 1
  44   24   45 1
  45   25   26 1
  46   25   46 1
  47   25   47 1
  48   26   48 1
  49   26   49 1
  50   27   28 1
  51   27   29 1
  52   27   30 1

#	End of record

