#	Name: ASD03200020
#	Creating user name:	WinNT
#	Creation time:	15. 06. 2019 20:34

#	Modifying user name:	WinNT
#	Modification time:	15. 06. 2019 20:34

#	Program:	/corina/corina34_cracker 3.40 0067  02.08.2006

@<TRIPOS>MOLECULE
ASD03200020
  53   57    0    0    0
SMALL
NO_CHARGES


@<TRIPOS>ATOM
   1 C1             0.9662    -1.0292    -0.1620 C.3     
   2 N2            -0.0316     0.0365    -0.0040 N.3     
   3 C3             0.3000     0.9107     1.1284 C.3     
   4 C4             1.6483     1.5884     0.8737 C.3     
   5 C5             2.7277     0.5166     0.6990 C.3     
   6 C6             2.3344    -0.4095    -0.4553 C.3     
   7 C7            -1.3130    -0.4951     0.1338 C.ar    
   8 C8            -2.0182    -0.3608     1.3271 C.ar    
   9 C9            -3.2847    -0.9008     1.4239 C.ar    
  10 N10           -3.8306    -1.5387     0.4059 N.ar    
  11 C11           -3.1994    -1.6899    -0.7433 C.ar    
  12 C12           -1.9274    -1.1733    -0.9258 C.ar    
  13 N13           -1.2613    -1.3365    -2.1480 N.am    
  14 C14           -1.4472    -2.4579    -2.8721 C.2     
  15 C15           -0.8519    -2.5758    -4.2053 C.2     
  16 O16           -2.1098    -3.3730    -2.4182 O.2     
  17 C17           -1.0050    -3.6944    -4.9938 C.2     
  18 S18           -0.1359    -3.4213    -6.5019 S.3     
  19 C19            0.3568    -1.8279    -5.9403 C.2     
  20 N20           -0.1213    -1.6062    -4.7585 N.2     
  21 C21            1.1899    -0.8788    -6.7091 C.2     
  22 N22            1.9895     2.4464     2.0161 N.3     
  23 N23           -1.7144    -4.8310    -4.6606 N.pl3   
  24 N24            1.5775     0.3409    -6.2984 N.2     
  25 C25            2.3123     0.9036    -7.2456 C.2     
  26 N26            2.4045     0.0283    -8.2977 N.pl3   
  27 C27            1.7026    -1.0924    -7.9555 C.2     
  28 C28            2.9550     2.1567    -7.3236 C.2     
  29 C29            3.6573     2.4771    -8.4433 C.2     
  30 C30            3.7331     1.5591    -9.5040 C.2     
  31 C31            3.1132     0.3638    -9.4157 C.2     
  32 H32            1.0216    -1.6139     0.7562 H       
  33 H33            0.6767    -1.6781    -0.9887 H       
  34 H34           -0.4734     1.6708     1.2390 H       
  35 H35            0.3585     0.3169     2.0406 H       
  36 H36            1.5864     2.1934    -0.0309 H       
  37 H37            3.6817     0.9936     0.4743 H       
  38 H38            2.8169    -0.0637     1.6173 H       
  39 H39            3.0777    -1.2001    -0.5571 H       
  40 H40            2.2832     0.1641    -1.3808 H       
  41 H41           -1.5796     0.1589     2.1661 H       
  42 H42           -3.8369    -0.8001     2.3466 H       
  43 H43           -3.6818    -2.2189    -1.5519 H       
  44 H44           -0.6666    -0.6425    -2.4727 H       
  45 H45            2.8764     2.9053     1.8715 H       
  46 H46            1.2590     3.1194     2.1938 H       
  47 H47           -2.1618    -4.8892    -3.8019 H       
  48 H48           -1.7656    -5.5713    -5.2852 H       
  49 H49            1.5729    -1.9780    -8.5598 H       
  50 H50            2.8898     2.8550    -6.5023 H       
  51 H51            4.1541     3.4332    -8.5168 H       
  52 H52            4.2902     1.8112   -10.3942 H       
  53 H53            3.1782    -0.3343   -10.2372 H       
@<TRIPOS>BOND
   1    1    2 1
   2    1    6 1
   3    1   32 1
   4    1   33 1
   5    2    3 1
   6    2    7 1
   7    3    4 1
   8    3   34 1
   9    3   35 1
  10    4    5 1
  11    4   22 1
  12    4   36 1
  13    5    6 1
  14    5   37 1
  15    5   38 1
  16    6   39 1
  17    6   40 1
  18    7    8 ar
  19    7   12 ar
  20    8    9 ar
  21    8   41 1
  22    9   10 ar
  23    9   42 1
  24   10   11 ar
  25   11   12 ar
  26   11   43 1
  27   12   13 1
  28   13   14 am
  29   13   44 1
  30   14   15 1
  31   14   16 2
  32   15   17 2
  33   15   20 1
  34   17   18 1
  35   17   23 1
  36   18   19 1
  37   19   20 2
  38   19   21 1
  39   21   24 1
  40   21   27 2
  41   22   45 1
  42   22   46 1
  43   23   47 1
  44   23   48 1
  45   24   25 2
  46   25   26 1
  47   25   28 1
  48   26   27 1
  49   26   31 1
  50   27   49 1
  51   28   29 2
  52   28   50 1
  53   29   30 1
  54   29   51 1
  55   30   31 2
  56   30   52 1
  57   31   53 1

#	End of record

