#	Name: ASD01813217
#	Creating user name:	WinNT
#	Creation time:	15. 06. 2019 19:30

#	Modifying user name:	WinNT
#	Modification time:	15. 06. 2019 19:30

#	Program:	/corina/corina34_cracker 3.40 0067  02.08.2006

@<TRIPOS>MOLECULE
ASD01813217
  46   49    0    0    0
SMALL
NO_CHARGES


@<TRIPOS>ATOM
   1 C1             7.1968     1.5273     0.2354 C.2     
   2 C2             7.2287     0.1263     0.2291 C.2     
   3 C3             6.0599    -0.5716     0.1399 C.2     
   4 C4             4.8436     0.1263     0.0560 C.2     
   5 N5             4.8419     1.4948     0.0640 N.am    
   6 C6             6.0162     2.1816     0.1538 C.2     
   7 C7             3.6411    -0.5885    -0.0358 C.2     
   8 C8             2.4541     0.0797    -0.1182 C.2     
   9 C9             2.4560     1.4869    -0.1091 C.2     
  10 C10            3.6818     2.1772    -0.0162 C.2     
  11 O11            3.6928     3.3966    -0.0073 O.2     
  12 C12            1.1958     2.2279    -0.1969 C.2     
  13 O13            1.2045     3.5769    -0.1877 O.3     
  14 O14            0.1413     1.6270    -0.2780 O.2     
  15 C15            3.6593    -2.0954    -0.0439 C.3     
  16 N16            3.6580    -2.5776    -1.4315 N.3     
  17 C17            4.0484    -3.9979    -1.4977 C.3     
  18 C18            2.9047    -4.7538    -2.2063 C.3     
  19 C19            2.1887    -3.6340    -3.0064 C.3     
  20 C20            2.3203    -2.4280    -2.0432 C.3     
  21 C21            3.4559    -5.8039    -3.1360 C.ar    
  22 C22            3.1321    -7.1343    -2.9457 C.ar    
  23 C23            3.6377    -8.0976    -3.7986 C.ar    
  24 C24            4.4668    -7.7305    -4.8420 C.ar    
  25 C25            4.7899    -6.4000    -5.0328 C.ar    
  26 C26            4.2808    -5.4363    -4.1826 C.ar    
  27 H27            8.1178     2.0863     0.3102 H       
  28 H28            8.1713    -0.3969     0.2938 H       
  29 H29            6.0696    -1.6515     0.1336 H       
  30 H30            6.0035     3.2615     0.1593 H       
  31 H31            1.5242    -0.4649    -0.1898 H       
  32 H32            0.3480     4.0218    -0.2477 H       
  33 H33            4.5563    -2.4507     0.4633 H       
  34 H34            2.7765    -2.4722     0.4725 H       
  35 H35            4.9713    -4.1026    -2.0681 H       
  36 H36            4.1854    -4.3921    -0.4908 H       
  37 H37            2.2279    -5.1997    -1.4775 H       
  38 H38            2.7009    -3.4389    -3.9486 H       
  39 H39            1.1418    -3.8847    -3.1775 H       
  40 H40            1.5461    -2.4681    -1.2770 H       
  41 H41            2.2590    -1.4914    -2.5972 H       
  42 H42            2.4843    -7.4211    -2.1306 H       
  43 H43            3.3852    -9.1370    -3.6495 H       
  44 H44            4.8624    -8.4831    -5.5078 H       
  45 H45            5.4380    -6.1132    -5.8478 H       
  46 H46            4.5333    -4.3968    -4.3317 H       
@<TRIPOS>BOND
   1    1    2 1
   2    1    6 2
   3    1   27 1
   4    2    3 2
   5    2   28 1
   6    3    4 1
   7    3   29 1
   8    4    5 1
   9    4    7 2
  10    5    6 1
  11    5   10 am
  12    6   30 1
  13    7    8 1
  14    7   15 1
  15    8    9 2
  16    8   31 1
  17    9   10 1
  18    9   12 1
  19   10   11 2
  20   12   13 1
  21   12   14 2
  22   13   32 1
  23   15   16 1
  24   15   33 1
  25   15   34 1
  26   16   17 1
  27   16   20 1
  28   17   18 1
  29   17   35 1
  30   17   36 1
  31   18   19 1
  32   18   21 1
  33   18   37 1
  34   19   20 1
  35   19   38 1
  36   19   39 1
  37   20   40 1
  38   20   41 1
  39   21   22 ar
  40   21   26 ar
  41   22   23 ar
  42   22   42 1
  43   23   24 ar
  44   23   43 1
  45   24   25 ar
  46   24   44 1
  47   25   26 ar
  48   25   45 1
  49   26   46 1

#	End of record

