#	Name: ASD07931977
#	Creating user name:	WinNT
#	Creation time:	15. 06. 2019 21:14

#	Modifying user name:	WinNT
#	Modification time:	15. 06. 2019 21:14

#	Program:	/corina/corina34_cracker 3.40 0067  02.08.2006

@<TRIPOS>MOLECULE
ASD07931977
  35   37    0    0    0
SMALL
NO_CHARGES


@<TRIPOS>ATOM
   1 S1            -0.0218     1.7566     0.0117 S.3     
   2 C2             0.0021    -0.0041     0.0020 C.2     
   3 N3             1.0067    -0.6801    -0.4023 N.2     
   4 C4             2.2788    -0.2480    -0.9298 C.3     
   5 C5             2.4018     1.2696    -1.1298 C.3     
   6 C6             1.7642     2.0612    -0.0037 C.3     
   7 O7             1.6798     0.2587    -3.1728 O.3     
   8 C8             2.3747    -0.7374    -2.4040 C.3     
   9 C9             1.6874     1.5096    -2.4693 C.3     
  10 N10           -1.1092    -0.6801     0.4498 N.pl3   
  11 C11            2.4451     2.5606    -3.2830 C.3     
  12 F12            3.7468     2.1108    -3.5287 F       
  13 F13            1.7873     2.7718    -4.4995 F       
  14 F14            2.4939     3.7603    -2.5649 F       
  15 C15            3.4157    -0.7905    -0.1027 C.ar    
  16 C16            4.7245    -0.5023    -0.4520 C.ar    
  17 C17            5.7709    -0.9990     0.3063 C.ar    
  18 C18            5.5115    -1.7838     1.4131 C.ar    
  19 C19            4.2001    -2.0740     1.7652 C.ar    
  20 C20            3.1516    -1.5700     1.0063 C.ar    
  21 F21            4.9804     0.2643    -1.5346 F       
  22 N22            3.9352    -2.8682     2.8851 N.pl3   
  23 H23            3.4526     1.5441    -1.2228 H       
  24 H24            1.9502     3.1243    -0.1561 H       
  25 H25            2.1942     1.7497     0.9482 H       
  26 H26            3.4173    -0.7975    -2.7161 H       
  27 H27            1.8892    -1.7072    -2.5136 H       
  28 H28            0.6646     1.8412    -2.2904 H       
  29 H29           -1.8839    -0.1868     0.7619 H       
  30 H30           -1.1182    -1.6500     0.4533 H       
  31 H31            6.7907    -0.7729     0.0321 H       
  32 H32            6.3282    -2.1716     2.0040 H       
  33 H33            2.1307    -1.7911     1.2807 H       
  34 H34            4.6678    -3.2169     3.4167 H       
  35 H35            3.0188    -3.0705     3.1304 H       
@<TRIPOS>BOND
   1    1    2 1
   2    1    6 1
   3    2    3 2
   4    2   10 1
   5    3    4 1
   6    4    8 1
   7    4   15 1
   8    4    5 1
   9    5    6 1
  10    5    9 1
  11    5   23 1
  12    6   24 1
  13    6   25 1
  14    7    8 1
  15    7    9 1
  16    8   26 1
  17    8   27 1
  18    9   11 1
  19    9   28 1
  20   10   29 1
  21   10   30 1
  22   11   12 1
  23   11   13 1
  24   11   14 1
  25   15   16 ar
  26   15   20 ar
  27   16   17 ar
  28   16   21 1
  29   17   18 ar
  30   17   31 1
  31   18   19 ar
  32   18   32 1
  33   19   20 ar
  34   19   22 1
  35   20   33 1
  36   22   34 1
  37   22   35 1

#	End of record

