#	Name: ASD01410167
#	Creating user name:	WinNT
#	Creation time:	15. 06. 2019 19:16

#	Modifying user name:	WinNT
#	Modification time:	15. 06. 2019 19:16

#	Program:	/corina/corina34_cracker 3.40 0067  02.08.2006

@<TRIPOS>MOLECULE
ASD01410167
  44   47    0    0    0
SMALL
NO_CHARGES


@<TRIPOS>ATOM
   1 C1            -0.0187     1.5258     0.0104 C.3     
   2 C2             0.0021    -0.0041     0.0020 C.3     
   3 C3             0.7182    -0.4975    -1.2568 C.3     
   4 C4             2.1536     0.0321    -1.2676 C.3     
   5 C5             2.1328     1.5619    -1.2592 C.3     
   6 C6             1.4167     2.0553    -0.0004 C.3     
   7 C7             3.8637     4.4993     2.5363 C.ar    
   8 C8             2.6611     3.8984     2.1608 C.ar    
   9 C9             2.1398     2.8553     2.9279 C.ar    
  10 C10            2.8153     2.4249     4.0511 C.ar    
  11 C11            4.0067     3.0251     4.4180 C.ar    
  12 C12            4.5287     4.0599     3.6623 C.ar    
  13 C13            0.8042     4.3940    -0.9708 C.ar    
  14 C14            1.0218     5.7301    -0.5634 C.ar    
  15 N15            0.5691     6.7279    -1.3011 N.ar    
  16 C16           -0.0934     6.5102    -2.4296 C.ar    
  17 C17           -0.3416     5.2122    -2.8878 C.ar    
  18 C18            0.1109     4.1430    -2.1624 C.ar    
  19 C19            1.3963     3.5622     0.0079 C.2     
  20 C20            1.9424     4.3652     0.9561 C.2     
  21 N21            1.7220     5.6817     0.6212 N.pl3   
  22 C22           -0.5793     7.6618    -3.2180 C.2     
  23 O23           -1.1872     7.4761    -4.2531 O.2     
  24 O24           -0.3479     8.9178    -2.7887 O.3     
  25 H25           -0.5459     1.8868    -0.8726 H       
  26 H26           -0.5289     1.8773     0.9072 H       
  27 H27            0.5293    -0.3651     0.8851 H       
  28 H28           -1.0205    -0.3814     0.0098 H       
  29 H29            0.7330    -1.5874    -1.2628 H       
  30 H30            0.1910    -0.1364    -2.1398 H       
  31 H31            2.6808    -0.3290    -0.3846 H       
  32 H32            2.6638    -0.3194    -2.1644 H       
  33 H33            3.1554     1.9392    -1.2670 H       
  34 H34            1.6057     1.9230    -2.1423 H       
  35 H35            1.9439     1.6943     0.8826 H       
  36 H36            4.2746     5.3039     1.9445 H       
  37 H37            1.2095     2.3865     2.6430 H       
  38 H38            2.4130     1.6179     4.6455 H       
  39 H39            4.5314     2.6846     5.2985 H       
  40 H40            5.4591     4.5241     3.9541 H       
  41 H41           -0.8828     5.0547    -3.8090 H       
  42 H42           -0.0686     3.1316    -2.4961 H       
  43 H43            2.0134     6.4507     1.1357 H       
  44 H44           -0.6850     9.6386    -3.3381 H       
@<TRIPOS>BOND
   1    1    2 1
   2    1    6 1
   3    1   25 1
   4    1   26 1
   5    2    3 1
   6    2   27 1
   7    2   28 1
   8    3    4 1
   9    3   29 1
  10    3   30 1
  11    4    5 1
  12    4   31 1
  13    4   32 1
  14    5    6 1
  15    5   33 1
  16    5   34 1
  17    6   19 1
  18    6   35 1
  19    7    8 ar
  20    7   12 ar
  21    7   36 1
  22    8    9 ar
  23    8   20 1
  24    9   10 ar
  25    9   37 1
  26   10   11 ar
  27   10   38 1
  28   11   12 ar
  29   11   39 1
  30   12   40 1
  31   13   19 1
  32   13   14 ar
  33   13   18 ar
  34   14   15 ar
  35   14   21 1
  36   15   16 ar
  37   16   17 ar
  38   16   22 1
  39   17   18 ar
  40   17   41 1
  41   18   42 1
  42   19   20 2
  43   20   21 1
  44   21   43 1
  45   22   23 2
  46   22   24 1
  47   24   44 1

#	End of record

