#	Name: ASD01900834
#	Creating user name:	WinNT
#	Creation time:	15. 06. 2019 19:52

#	Modifying user name:	WinNT
#	Modification time:	15. 06. 2019 19:52

#	Program:	/corina/corina34_cracker 3.40 0067  02.08.2006

@<TRIPOS>MOLECULE
ASD01900834
  34   37    0    0    0
SMALL
NO_CHARGES


@<TRIPOS>ATOM
   1 C1            -0.0167     1.3818     0.0096 C.ar    
   2 C2             0.0021    -0.0041     0.0020 C.ar    
   3 C3             1.2283    -0.6500    -0.0132 C.ar    
   4 N4             2.3373     0.0708    -0.0199 N.ar    
   5 C5             2.2846     1.3947    -0.0123 C.ar    
   6 N6             1.1291     2.0427     0.0022 N.ar    
   7 N7             3.4647     2.1179    -0.0192 N.pl3   
   8 S8             3.4435     3.7336    -0.3815 S.o     
   9 C9             5.2067     4.2066    -0.2566 C.3     
  10 C10            5.5616     4.3761    -1.7174 C.2     
  11 C11            4.4436     4.0482    -2.4819 C.2     
  12 N12            3.3320     3.7426    -1.8751 N.2     
  13 C13            6.8486     4.8708    -2.2981 C.3     
  14 C14            5.8035     3.4693    -4.4811 C.2     
  15 C15            4.6555     4.0017    -3.9713 C.2     
  16 C16            3.8553     4.4400    -5.0187 C.2     
  17 N17            4.5198     4.2271    -6.1315 N.2     
  18 N18            5.7537     3.6379    -5.8110 N.pl3   
  19 C19            6.8334     2.7729    -3.6469 C.3     
  20 C20            7.7327     3.7508    -2.8703 C.3     
  21 H21           -0.9555     1.9156     0.0170 H       
  22 H22           -0.9188    -0.5684     0.0081 H       
  23 H23            1.2777    -1.7289    -0.0191 H       
  24 H24            4.3041     1.6783     0.1882 H       
  25 H25            5.3246     5.1435     0.2877 H       
  26 H26            5.7953     3.4115     0.2011 H       
  27 H27            6.6226     5.5790    -3.0952 H       
  28 H28            7.4055     5.3919    -1.5193 H       
  29 H29            2.8701     4.8744    -4.9340 H       
  30 H30            6.4494     3.3953    -6.4418 H       
  31 H31            6.3271     2.1203    -2.9356 H       
  32 H32            7.4586     2.1618    -4.2979 H       
  33 H33            8.4772     4.1777    -3.5422 H       
  34 H34            8.2309     3.2241    -2.0563 H       
@<TRIPOS>BOND
   1    1    2 ar
   2    1    6 ar
   3    1   21 1
   4    2    3 ar
   5    2   22 1
   6    3    4 ar
   7    3   23 1
   8    4    5 ar
   9    5    6 ar
  10    5    7 1
  11    7    8 1
  12    7   24 1
  13    8    9 1
  14    8   12 2
  15    9   10 1
  16    9   25 1
  17    9   26 1
  18   10   13 1
  19   10   11 2
  20   11   12 1
  21   11   15 1
  22   13   20 1
  23   13   27 1
  24   13   28 1
  25   14   18 1
  26   14   15 2
  27   14   19 1
  28   15   16 1
  29   16   17 2
  30   16   29 1
  31   17   18 1
  32   18   30 1
  33   19   20 1
  34   19   31 1
  35   19   32 1
  36   20   33 1
  37   20   34 1

#	End of record

