#	Name: ASD01908138
#	Creating user name:	WinNT
#	Creation time:	15. 06. 2019 19:54

#	Modifying user name:	WinNT
#	Modification time:	15. 06. 2019 19:54

#	Program:	/corina/corina34_cracker 3.40 0067  02.08.2006

@<TRIPOS>MOLECULE
ASD01908138
  26   27    0    0    0
SMALL
NO_CHARGES


@<TRIPOS>ATOM
   1 N1            -0.0169     1.3966     0.0097 N.pl3   
   2 N2             0.0021    -0.0041     0.0020 N.2     
   3 C3             1.2503    -0.3961    -0.0120 C.2     
   4 C4             2.0655     0.7408    -0.0137 C.2     
   5 C5             1.2616     1.8296    -0.0002 C.2     
   6 C6            -1.2132     2.2423     0.0202 C.3     
   7 C7            -2.0998     1.8727    -1.1409 C.ar    
   8 C8            -3.0688     0.8986    -0.9867 C.ar    
   9 C9            -3.8829     0.5580    -2.0495 C.ar    
  10 C10           -3.7275     1.1943    -3.2725 C.ar    
  11 C11           -2.7544     2.1714    -3.4247 C.ar    
  12 C12           -1.9467     2.5123    -2.3571 C.ar    
  13 O13           -4.5267     0.8607    -4.3198 O.3     
  14 C14           -4.3102     1.5570    -5.5487 C.3     
  15 I15            4.1604     0.7555    -0.0336 I       
  16 H16            1.5922    -1.4205    -0.0202 H       
  17 H17            1.5850     2.8600     0.0017 H       
  18 H18           -1.7557     2.0926     0.9537 H       
  19 H19           -0.9193     3.2884    -0.0655 H       
  20 H20           -3.1892     0.4033    -0.0345 H       
  21 H21           -4.6394    -0.2032    -1.9286 H       
  22 H22           -2.6315     2.6681    -4.3758 H       
  23 H23           -1.1922     3.2762    -2.4738 H       
  24 H24           -5.0128     1.1958    -6.2997 H       
  25 H25           -4.4622     2.6250    -5.3929 H       
  26 H26           -3.2904     1.3813    -5.8910 H       
@<TRIPOS>BOND
   1    1    2 1
   2    1    5 1
   3    1    6 1
   4    2    3 2
   5    3    4 1
   6    3   16 1
   7    4    5 2
   8    4   15 1
   9    5   17 1
  10    6    7 1
  11    6   18 1
  12    6   19 1
  13    7    8 ar
  14    7   12 ar
  15    8    9 ar
  16    8   20 1
  17    9   10 ar
  18    9   21 1
  19   10   11 ar
  20   10   13 1
  21   11   12 ar
  22   11   22 1
  23   12   23 1
  24   13   14 1
  25   14   24 1
  26   14   25 1
  27   14   26 1

#	End of record

