#	Name: ASD00170467
#	Creating user name:	WinNT
#	Creation time:	15. 06. 2019 18:32

#	Modifying user name:	WinNT
#	Modification time:	15. 06. 2019 18:32

#	Program:	/corina/corina34_cracker 3.40 0067  02.08.2006

@<TRIPOS>MOLECULE
ASD00170467
  35   38    0    0    0
SMALL
NO_CHARGES


@<TRIPOS>ATOM
   1 C1            -0.0168     1.3903     0.0097 C.ar    
   2 C2             0.0021    -0.0041     0.0020 C.ar    
   3 C3             1.2212    -0.6839    -0.0133 C.ar    
   4 C4             2.3986     0.0262    -0.0208 C.ar    
   5 C5             2.3838     1.4177    -0.0132 C.ar    
   6 C6             1.1647     2.0984     0.0022 C.ar    
   7 C7             3.8465    -0.3930    -0.0369 C.3     
   8 C8             4.6431     0.8935    -0.0377 C.2     
   9 C9             3.7875     1.9338    -0.0239 C.2     
  10 S10            6.2972     1.5032    -0.0498 S.3     
  11 C11            5.6905     3.1542    -0.0349 C.2     
  12 N12            4.4007     3.1383    -0.0233 N.2     
  13 C13           -1.2715    -0.7638     0.0106 C.ar    
  14 C14           -2.4897    -0.0869     0.0264 C.ar    
  15 C15           -3.6719    -0.7993     0.0344 C.ar    
  16 C16           -3.6491    -2.1822     0.0273 C.ar    
  17 C17           -2.4428    -2.8594     0.0116 C.ar    
  18 C18           -1.2548    -2.1577    -0.0028 C.ar    
  19 N19            6.4764     4.2951    -0.0352 N.pl3   
  20 C20           -4.9899    -0.0689     0.0515 C.3     
  21 O21           -5.4200     0.1692    -1.2903 O.3     
  22 H22           -0.9601     1.9162     0.0170 H       
  23 H23            1.2395    -1.7637    -0.0189 H       
  24 H24            1.1482     3.1783     0.0078 H       
  25 H25            4.0788    -0.9794     0.8520 H       
  26 H26            4.0617    -0.9698    -0.9364 H       
  27 H27           -2.5086     0.9929     0.0327 H       
  28 H28           -4.5766    -2.7355     0.0343 H       
  29 H29           -2.4310    -3.9394     0.0061 H       
  30 H30           -0.3137    -2.6874    -0.0150 H       
  31 H31            7.4433     4.2180    -0.0441 H       
  32 H32            6.0597     5.1710    -0.0265 H       
  33 H33           -5.7340    -0.6740     0.5696 H       
  34 H34           -4.8712     0.8829     0.5692 H       
  35 H35           -6.2639     0.6368    -1.3557 H       
@<TRIPOS>BOND
   1    1    2 ar
   2    1    6 ar
   3    1   22 1
   4    2    3 ar
   5    2   13 1
   6    3    4 ar
   7    3   23 1
   8    4    5 ar
   9    4    7 1
  10    5    6 ar
  11    5    9 1
  12    6   24 1
  13    7    8 1
  14    7   25 1
  15    7   26 1
  16    8    9 2
  17    8   10 1
  18    9   12 1
  19   10   11 1
  20   11   12 2
  21   11   19 1
  22   13   14 ar
  23   13   18 ar
  24   14   15 ar
  25   14   27 1
  26   15   16 ar
  27   15   20 1
  28   16   17 ar
  29   16   28 1
  30   17   18 ar
  31   17   29 1
  32   18   30 1
  33   19   31 1
  34   19   32 1
  35   20   21 1
  36   20   33 1
  37   20   34 1
  38   21   35 1

#	End of record

