#	Name: ASD01913829
#	Creating user name:	WinNT
#	Creation time:	15. 06. 2019 20:02

#	Modifying user name:	WinNT
#	Modification time:	15. 06. 2019 20:02

#	Program:	/corina/corina34_cracker 3.40 0067  02.08.2006

@<TRIPOS>MOLECULE
ASD01913829
  40   42    0    0    0
SMALL
NO_CHARGES


@<TRIPOS>ATOM
   1 C1            -0.0238     1.4277    -0.0322 C.ar    
   2 C2            -0.0026    -0.0041    -0.0275 C.1     
   3 C3             0.0149    -1.1780    -0.0237 C.1     
   4 C4             0.0361    -2.6098    -0.0191 C.ar    
   5 C5            -1.1326    -3.3385     0.2483 C.ar    
   6 C6             0.1560    -5.3344    -0.0290 C.ar    
   7 N7             1.2411    -4.6188    -0.2835 N.ar    
   8 C8             1.2192    -3.3021    -0.2863 C.ar    
   9 C9            -1.0617    -4.7170     0.2409 C.ar    
  10 N10            0.2331    -6.7250    -0.0390 N.am    
  11 C11           -0.8139    -7.5604    -0.0286 C.2     
  12 N12           -0.4748    -8.8562    -0.0419 N.am    
  13 C13            0.9910    -8.9717    -0.0644 C.3     
  14 C14            1.4767    -7.5092    -0.0689 C.3     
  15 O15           -1.9676    -7.1773    -0.0086 O.2     
  16 C16           -1.4148    -9.9798    -0.0349 C.3     
  17 C17            1.4912    -9.7054     1.1815 C.3     
  18 C18            1.4537    -9.6896    -1.3340 C.3     
  19 C19            1.1377     2.1649    -0.2980 C.ar    
  20 N20            1.0717     3.4846    -0.2923 N.ar    
  21 C21           -0.0638     4.1065    -0.0418 C.ar    
  22 N22           -1.1802     3.4528     0.2133 N.ar    
  23 C23           -1.2079     2.1318     0.2231 C.ar    
  24 H24           -2.0645    -2.8334     0.4551 H       
  25 H25            2.1246    -2.7525    -0.4976 H       
  26 H26           -1.9415    -5.3100     0.4428 H       
  27 H27            2.0471    -7.2982    -0.9734 H       
  28 H28            2.0744    -7.3019     0.8187 H       
  29 H29           -2.4360    -9.5990    -0.0177 H       
  30 H30           -1.2669   -10.5828    -0.9308 H       
  31 H31           -1.2410   -10.5935     0.8489 H       
  32 H32            1.0786   -10.7141     1.1993 H       
  33 H33            2.5797    -9.7585     1.1595 H       
  34 H34            1.1716    -9.1664     2.0734 H       
  35 H35            1.1077    -9.1393    -2.2090 H       
  36 H36            2.5423    -9.7427    -1.3451 H       
  37 H37            1.0405   -10.6981    -1.3522 H       
  38 H38            2.0715     1.6629    -0.5037 H       
  39 H39           -0.0798     5.1863    -0.0453 H       
  40 H40           -2.1263     1.6036     0.4329 H       
@<TRIPOS>BOND
   1    1    2 1
   2    1   19 ar
   3    1   23 ar
   4    2    3 3
   5    3    4 1
   6    4    5 ar
   7    4    8 ar
   8    5    9 ar
   9    5   24 1
  10    6    7 ar
  11    6   10 1
  12    6    9 ar
  13    7    8 ar
  14    8   25 1
  15    9   26 1
  16   10   11 am
  17   10   14 1
  18   11   12 am
  19   11   15 2
  20   12   13 1
  21   12   16 1
  22   13   14 1
  23   13   17 1
  24   13   18 1
  25   14   27 1
  26   14   28 1
  27   16   29 1
  28   16   30 1
  29   16   31 1
  30   17   32 1
  31   17   33 1
  32   17   34 1
  33   18   35 1
  34   18   36 1
  35   18   37 1
  36   19   20 ar
  37   19   38 1
  38   20   21 ar
  39   21   22 ar
  40   21   39 1
  41   22   23 ar
  42   23   40 1

#	End of record

