#	Name: ASD02030355
#	Creating user name:	WinNT
#	Creation time:	15. 06. 2019 20:15

#	Modifying user name:	WinNT
#	Modification time:	15. 06. 2019 20:15

#	Program:	/corina/corina34_cracker 3.40 0067  02.08.2006

@<TRIPOS>MOLECULE
ASD02030355
  37   39    0    0    0
SMALL
NO_CHARGES


@<TRIPOS>ATOM
   1 N1            -0.0158     1.4642    -0.0355 N.am    
   2 C2            -1.3229     2.1372     0.0067 C.3     
   3 C3            -2.1758     1.6173    -1.1555 C.3     
   4 N4            -2.2304     0.1504    -1.1007 N.3     
   5 C5            -0.8967    -0.4395    -1.2778 C.3     
   6 C6             0.0086    -0.0035    -0.1268 C.3     
   7 C7             1.1293     2.1740     0.0030 C.2     
   8 O8             1.0935     3.3883    -0.0409 O.2     
   9 C9             2.4289     1.4758     0.0984 C.2     
  10 N10            3.6162     2.0355     0.0099 N.2     
  11 N11            2.6059     0.1567     0.2969 N.2     
  12 C12            3.8957    -0.0635     0.3208 C.2     
  13 N13            4.5148     1.1212     0.1400 N.pl3   
  14 C14            5.9010     1.3234     0.0996 C.ar    
  15 C15            6.4123     2.5992    -0.0940 C.ar    
  16 C16            7.7803     2.7954    -0.1329 C.ar    
  17 C17            8.6388     1.7211     0.0210 C.ar    
  18 C18            8.1313     0.4493     0.2140 C.ar    
  19 C19            6.7657     0.2484     0.2589 C.ar    
  20 Cl20           8.4214     4.3903    -0.3755 Cl      
  21 C21           -1.0108    -1.9652    -1.2903 C.3     
  22 H22           -1.8183     1.9160     0.9520 H       
  23 H23           -1.1839     3.2136    -0.0940 H       
  24 H24           -3.1847     2.0221    -1.0757 H       
  25 H25           -1.7318     1.9297    -2.1007 H       
  26 H26           -2.6534    -0.1638    -0.2402 H       
  27 H27           -0.4705    -0.0985    -2.2212 H       
  28 H28            1.0273    -0.3435    -0.3133 H       
  29 H29           -0.3571    -0.4287     0.8079 H       
  30 H30            4.3771    -1.0198     0.4621 H       
  31 H31            5.7422     3.4377    -0.2145 H       
  32 H32            9.7071     1.8761    -0.0100 H       
  33 H33            8.8038    -0.3873     0.3338 H       
  34 H34            6.3704    -0.7453     0.4097 H       
  35 H35           -1.6567    -2.2745    -2.1120 H       
  36 H36           -0.0211    -2.4025    -1.4217 H       
  37 H37           -1.4360    -2.3055    -0.3461 H       
@<TRIPOS>BOND
   1    1    2 1
   2    1    7 am
   3    1    6 1
   4    2    3 1
   5    2   22 1
   6    2   23 1
   7    3    4 1
   8    3   24 1
   9    3   25 1
  10    4    5 1
  11    4   26 1
  12    5    6 1
  13    5   21 1
  14    5   27 1
  15    6   28 1
  16    6   29 1
  17    7    8 2
  18    7    9 1
  19    9   10 2
  20    9   11 1
  21   10   13 1
  22   11   12 2
  23   12   13 1
  24   12   30 1
  25   13   14 1
  26   14   15 ar
  27   14   19 ar
  28   15   16 ar
  29   15   31 1
  30   16   17 ar
  31   16   20 1
  32   17   18 ar
  33   17   32 1
  34   18   19 ar
  35   18   33 1
  36   19   34 1
  37   21   35 1
  38   21   36 1
  39   21   37 1

#	End of record

