#	Name: ASD01230120
#	Creating user name:	WinNT
#	Creation time:	15. 06. 2019 19:11

#	Modifying user name:	WinNT
#	Modification time:	15. 06. 2019 19:11

#	Program:	/corina/corina34_cracker 3.40 0067  02.08.2006

@<TRIPOS>MOLECULE
ASD01230120
  49   52    0    0    0
SMALL
NO_CHARGES


@<TRIPOS>ATOM
   1 N1            -0.0179     1.4659     0.0101 N.3     
   2 C2             0.0021    -0.0041     0.0020 C.3     
   3 C3             1.3627     3.9680     1.5637 C.ar    
   4 C4             1.2960     3.4954     0.2552 C.ar    
   5 C5             1.3462     2.0110     0.0000 C.3     
   6 C6             1.3196     5.3055     1.8268 C.ar    
   7 C7             1.2070     6.2142     0.7697 C.ar    
   8 C8             1.1383     5.7393    -0.5648 C.ar    
   9 C9             1.1857     4.3519    -0.7968 C.ar    
  10 C10            1.1566     7.6580     1.0032 C.ar    
  11 C11            1.0434     8.4820    -0.1147 C.ar    
  12 C12            0.9839     7.9073    -1.3867 C.ar    
  13 N13            1.0300     6.6028    -1.5747 N.ar    
  14 C14            0.8630     8.7959    -2.5676 C.2     
  15 N15            0.8037     8.2669    -3.8058 N.am    
  16 O16            0.8174    10.0009    -2.4191 O.2     
  17 C17            1.2223     8.2175     2.3650 C.2     
  18 C18            2.0454     9.2083     2.7818 C.2     
  19 C19           -1.4344    -0.5289     0.0732 C.3     
  20 O20           -2.1875     0.0083    -1.0174 O.3     
  21 C21           -2.2284     1.4377    -1.0399 C.3     
  22 C22           -0.8000     1.9825    -1.1224 C.3     
  23 N23            1.9070     9.5256     4.0480 N.2     
  24 C24            1.0248     8.8725     4.7301 C.2     
  25 S25            0.2383     7.7219     3.7402 S.3     
  26 C26            0.7278     9.0970     6.1904 C.3     
  27 C27           -1.4252    -2.0563    -0.0156 C.3     
  28 F28           -0.6841    -2.5809     1.0488 F       
  29 F29           -2.7381    -2.5352     0.0496 F       
  30 F30           -0.8449    -2.4496    -1.2263 F       
  31 H31            0.4733    -0.3566    -0.9154 H       
  32 H32            0.5646    -0.3652     0.8630 H       
  33 H33            1.4451     3.2662     2.3805 H       
  34 H34            1.9362     1.5281     0.7791 H       
  35 H35            1.8048     1.8246    -0.9711 H       
  36 H36            1.3717     5.6608     2.8453 H       
  37 H37            1.1352     3.9687    -1.8053 H       
  38 H38            1.0016     9.5549     0.0010 H       
  39 H39            0.8401     7.3048    -3.9244 H       
  40 H40            0.7246     8.8481    -4.5783 H       
  41 H41            2.7548     9.6952     2.1291 H       
  42 H42           -1.8877    -0.2219     1.0157 H       
  43 H43           -2.7962     1.7719    -1.9083 H       
  44 H44           -2.7051     1.8026    -0.1302 H       
  45 H45           -0.8230     3.0715    -1.0823 H       
  46 H46           -0.3416     1.6617    -2.0579 H       
  47 H47           -0.0554     9.8485     6.2905 H       
  48 H48            0.3943     8.1623     6.6412 H       
  49 H49            1.6297     9.4426     6.6957 H       
@<TRIPOS>BOND
   1    1    2 1
   2    1    5 1
   3    1   22 1
   4    2   19 1
   5    2   31 1
   6    2   32 1
   7    3    4 ar
   8    3    6 ar
   9    3   33 1
  10    4    5 1
  11    4    9 ar
  12    5   34 1
  13    5   35 1
  14    6    7 ar
  15    6   36 1
  16    7    8 ar
  17    7   10 ar
  18    8    9 ar
  19    8   13 ar
  20    9   37 1
  21   10   11 ar
  22   10   17 1
  23   11   12 ar
  24   11   38 1
  25   12   13 ar
  26   12   14 1
  27   14   15 am
  28   14   16 2
  29   15   39 1
  30   15   40 1
  31   17   18 2
  32   17   25 1
  33   18   23 1
  34   18   41 1
  35   19   27 1
  36   19   20 1
  37   19   42 1
  38   20   21 1
  39   21   22 1
  40   21   43 1
  41   21   44 1
  42   22   45 1
  43   22   46 1
  44   23   24 2
  45   24   25 1
  46   24   26 1
  47   26   47 1
  48   26   48 1
  49   26   49 1
  50   27   28 1
  51   27   29 1
  52   27   30 1

#	End of record

