#	Name: ASD07190001
#	Creating user name:	WinNT
#	Creation time:	15. 06. 2019 21:09

#	Modifying user name:	WinNT
#	Modification time:	15. 06. 2019 21:09

#	Program:	/corina/corina34_cracker 3.40 0067  02.08.2006

@<TRIPOS>MOLECULE
ASD07190001
  49   52    0    0    0
SMALL
NO_CHARGES


@<TRIPOS>ATOM
   1 C1             7.1597     1.9847     0.6532 C.ar    
   2 C2             7.2131     0.9826     1.6028 C.ar    
   3 C3             6.0497     0.3593     2.0153 C.ar    
   4 C4             4.8265     0.7371     1.4782 C.ar    
   5 C5             4.7690     1.7492     0.5248 C.ar    
   6 C6             5.9454     2.3680     0.1157 C.ar    
   7 S7             3.3609    -0.0778     2.0136 S.3     
   8 C8             2.1898     0.3221     0.7617 C.ar    
   9 C9             2.4156     1.3827    -0.1101 C.ar    
  10 N10            3.5627     2.1689    -0.0308 N.pl3   
  11 C11            1.0298    -0.4332     0.6492 C.ar    
  12 C12            0.0978    -0.1365    -0.3279 C.ar    
  13 C13            0.3200     0.9161    -1.1971 C.ar    
  14 C14            1.4721     1.6732    -1.0903 C.ar    
  15 Cl15          -0.8504     1.2881    -2.4242 Cl      
  16 C16            3.4957     3.5303    -0.5679 C.3     
  17 C17            3.8951     3.5162    -2.0447 C.3     
  18 C18            3.8251     4.9379    -2.6056 C.3     
  19 N19            4.2086     4.9244    -4.0236 N.3     
  20 C20            3.9283     6.2203    -4.6574 C.3     
  21 C21            4.4138     6.1910    -6.1086 C.3     
  22 N22            3.7394     5.1002    -6.8261 N.3     
  23 C23            4.0197     3.8043    -6.1923 C.3     
  24 C24            3.5342     3.8336    -4.7412 C.3     
  25 C25            4.1229     5.0867    -8.2441 C.3     
  26 H26            8.0685     2.4728     0.3335 H       
  27 H27            8.1630     0.6859     2.0223 H       
  28 H28            6.0928    -0.4241     2.7575 H       
  29 H29            5.9099     3.1522    -0.6260 H       
  30 H30            0.8554    -1.2556     1.3272 H       
  31 H31           -0.8033    -0.7259    -0.4121 H       
  32 H32            1.6408     2.4938    -1.7719 H       
  33 H33            2.4785     3.9097    -0.4702 H       
  34 H34            4.1784     4.1738    -0.0130 H       
  35 H35            4.9123     3.1368    -2.1424 H       
  36 H36            3.2124     2.8727    -2.5996 H       
  37 H37            2.8079     5.3174    -2.5080 H       
  38 H38            4.5078     5.5815    -2.0507 H       
  39 H39            2.8553     6.4107    -4.6367 H       
  40 H40            4.4486     7.0102    -4.1157 H       
  41 H41            4.1808     7.1412    -6.5892 H       
  42 H42            5.4913     6.0278    -6.1283 H       
  43 H43            3.4994     3.0145    -6.7340 H       
  44 H44            5.0927     3.6139    -6.2130 H       
  45 H45            3.7672     2.8834    -4.2605 H       
  46 H46            2.4567     3.9969    -4.7214 H       
  47 H47            5.2006     4.9462    -8.3277 H       
  48 H48            3.6096     4.2699    -8.7516 H       
  49 H49            3.8431     6.0339    -8.7053 H       
@<TRIPOS>BOND
   1    1    2 ar
   2    1    6 ar
   3    1   26 1
   4    2    3 ar
   5    2   27 1
   6    3    4 ar
   7    3   28 1
   8    4    5 ar
   9    4    7 1
  10    5    6 ar
  11    5   10 1
  12    6   29 1
  13    7    8 1
  14    8    9 ar
  15    8   11 ar
  16    9   10 1
  17    9   14 ar
  18   10   16 1
  19   11   12 ar
  20   11   30 1
  21   12   13 ar
  22   12   31 1
  23   13   14 ar
  24   13   15 1
  25   14   32 1
  26   16   17 1
  27   16   33 1
  28   16   34 1
  29   17   18 1
  30   17   35 1
  31   17   36 1
  32   18   19 1
  33   18   37 1
  34   18   38 1
  35   19   20 1
  36   19   24 1
  37   20   21 1
  38   20   39 1
  39   20   40 1
  40   21   22 1
  41   21   41 1
  42   21   42 1
  43   22   23 1
  44   22   25 1
  45   23   24 1
  46   23   43 1
  47   23   44 1
  48   24   45 1
  49   24   46 1
  50   25   47 1
  51   25   48 1
  52   25   49 1

#	End of record

