#	Name: ASD01890348
#	Creating user name:	WinNT
#	Creation time:	15. 06. 2019 19:50

#	Modifying user name:	WinNT
#	Modification time:	15. 06. 2019 19:50

#	Program:	/corina/corina34_cracker 3.40 0067  02.08.2006

@<TRIPOS>MOLECULE
ASD01890348
  49   51    0    0    0
SMALL
NO_CHARGES


@<TRIPOS>ATOM
   1 C1            -0.0170     1.4060     0.0098 C.2     
   2 C2             0.0021    -0.0041     0.0020 C.2     
   3 C3             1.1943    -0.6710    -0.0129 C.2     
   4 O4             1.0288     2.0289     0.0031 O.2     
   5 O5            -1.1954     2.0651     0.0189 O.3     
   6 C6             2.4645     0.0856    -0.0210 C.ar    
   7 C7             2.8164     0.8770     1.0742 C.ar    
   8 C8             4.0031     1.5799     1.0603 C.ar    
   9 C9             4.8442     1.5021    -0.0357 C.ar    
  10 C10            4.5016     0.7197    -1.1245 C.ar    
  11 C11            3.3204     0.0074    -1.1215 C.ar    
  12 C12            1.2143    -2.1451    -0.0211 C.ar    
  13 C13            0.9208    -2.8626     1.1509 C.ar    
  14 C14            0.9425    -4.2515     1.1303 C.ar    
  15 C15            1.2510    -4.9212    -0.0364 C.ar    
  16 C16            1.5412    -4.2164    -1.1951 C.ar    
  17 C17            1.5195    -2.8376    -1.1957 C.ar    
  18 S18            0.5279    -2.0051     2.6392 S.3     
  19 C19            0.2391    -3.3505     3.8212 C.3     
  20 C20           -0.1138    -2.7702     5.1665 C.ar    
  21 C21           -1.4350    -2.5173     5.4851 C.ar    
  22 C22           -1.7587    -1.9849     6.7190 C.ar    
  23 C23           -0.7613    -1.7058     7.6346 C.ar    
  24 C24            0.5597    -1.9596     7.3163 C.ar    
  25 C25            0.8831    -2.4960     6.0840 C.ar    
  26 Cl26           1.9277    -5.0745    -2.6539 Cl      
  27 C27           -1.1400     3.4930     0.0264 C.3     
  28 C28           -2.5616     4.0586     0.0363 C.3     
  29 H29           -0.9258    -0.5567     0.0079 H       
  30 H30            2.1606     0.9389     1.9301 H       
  31 H31            4.2763     2.1927     1.9067 H       
  32 H32            5.7721     2.0547    -0.0416 H       
  33 H33            5.1626     0.6633    -1.9767 H       
  34 H34            3.0561    -0.6061    -1.9701 H       
  35 H35            0.7181    -4.8078     2.0284 H       
  36 H36            1.2668    -6.0010    -0.0470 H       
  37 H37            1.7419    -2.2937    -2.1018 H       
  38 H38           -0.5819    -3.9745     3.4680 H       
  39 H39            1.1418    -3.9547     3.9117 H       
  40 H40           -2.2142    -2.7353     4.7698 H       
  41 H41           -2.7909    -1.7867     6.9676 H       
  42 H42           -1.0142    -1.2892     8.5984 H       
  43 H43            1.3390    -1.7413     8.0315 H       
  44 H44            1.9149    -2.6977     5.8368 H       
  45 H45           -0.6083     3.8313     0.9158 H       
  46 H46           -0.6167     3.8410    -0.8642 H       
  47 H47           -3.0934     3.7203    -0.8531 H       
  48 H48           -3.0849     3.7106     0.9269 H       
  49 H49           -2.5193     5.1477     0.0420 H       
@<TRIPOS>BOND
   1    1    2 1
   2    1    4 2
   3    1    5 1
   4    2    3 2
   5    2   29 1
   6    3    6 1
   7    3   12 1
   8    5   27 1
   9    6    7 ar
  10    6   11 ar
  11    7    8 ar
  12    7   30 1
  13    8    9 ar
  14    8   31 1
  15    9   10 ar
  16    9   32 1
  17   10   11 ar
  18   10   33 1
  19   11   34 1
  20   12   13 ar
  21   12   17 ar
  22   13   14 ar
  23   13   18 1
  24   14   15 ar
  25   14   35 1
  26   15   16 ar
  27   15   36 1
  28   16   17 ar
  29   16   26 1
  30   17   37 1
  31   18   19 1
  32   19   20 1
  33   19   38 1
  34   19   39 1
  35   20   21 ar
  36   20   25 ar
  37   21   22 ar
  38   21   40 1
  39   22   23 ar
  40   22   41 1
  41   23   24 ar
  42   23   42 1
  43   24   25 ar
  44   24   43 1
  45   25   44 1
  46   27   28 1
  47   27   45 1
  48   27   46 1
  49   28   47 1
  50   28   48 1
  51   28   49 1

#	End of record

