#	Name: ASD03430762
#	Creating user name:	WinNT
#	Creation time:	15. 06. 2019 20:41

#	Modifying user name:	WinNT
#	Modification time:	15. 06. 2019 20:41

#	Program:	/corina/corina34_cracker 3.40 0067  02.08.2006

@<TRIPOS>MOLECULE
ASD03430762
  35   39    0    0    0
SMALL
NO_CHARGES


@<TRIPOS>ATOM
   1 C1            -0.0167     1.3813     0.0096 C.ar    
   2 C2             0.0021    -0.0041     0.0020 C.ar    
   3 C3             1.2049    -0.6763    -0.0142 C.ar    
   4 C4             2.4103     0.0225    -0.0124 C.ar    
   5 C5             2.3884     1.4129    -0.0091 C.ar    
   6 C6             1.1831     2.0929     0.0020 C.ar    
   7 O7             3.4744    -0.8307    -0.0013 O.3     
   8 C8             1.5570    -2.1392    -0.0497 C.3     
   9 C9             3.0428    -2.1348    -0.4348 C.3     
  10 C10            0.4353    -3.8581     1.0029 C.ar    
  11 C11            1.3219    -2.8169     1.2675 C.ar    
  12 C12            0.7259    -2.9000    -1.0427 C.2     
  13 N13            0.1063    -3.8794    -0.3546 N.am    
  14 O14            0.6308    -2.6767    -2.2311 O.2     
  15 C15            1.7867    -2.6006     2.5451 C.ar    
  16 C16            1.3749    -3.4208     3.5809 C.ar    
  17 C17            0.4951    -4.4574     3.3296 C.ar    
  18 C18            0.0260    -4.6782     2.0510 C.ar    
  19 N19           -1.0430     2.3279     0.0189 N.am    
  20 C20           -0.4680     3.5469     0.0202 C.2     
  21 O21            0.8673     3.4118     0.0084 O.3     
  22 O22           -1.0665     4.6054     0.0270 O.2     
  23 C23           -2.4809     2.0476     0.0255 C.3     
  24 H24           -0.9257    -0.5569     0.0092 H       
  25 H25            3.3167     1.9649    -0.0151 H       
  26 H26            3.1636    -2.2439    -1.5126 H       
  27 H27            3.5828    -2.9179     0.0975 H       
  28 H28           -0.4978    -4.5239    -0.7553 H       
  29 H29            2.4737    -1.7903     2.7392 H       
  30 H30            1.7395    -3.2514     4.5833 H       
  31 H31            0.1739    -5.0976     4.1379 H       
  32 H32           -0.6613    -5.4897     1.8626 H       
  33 H33           -2.8320     1.9740     1.0547 H       
  34 H34           -3.0105     2.8537    -0.4823 H       
  35 H35           -2.6700     1.1066    -0.4911 H       
@<TRIPOS>BOND
   1    1    2 ar
   2    1    6 ar
   3    1   19 1
   4    2    3 ar
   5    2   24 1
   6    3    4 ar
   7    3    8 1
   8    4    5 ar
   9    4    7 1
  10    5    6 ar
  11    5   25 1
  12    6   21 1
  13    7    9 1
  14    8    9 1
  15    8   11 1
  16    8   12 1
  17    9   26 1
  18    9   27 1
  19   10   11 ar
  20   10   13 1
  21   10   18 ar
  22   11   15 ar
  23   12   13 am
  24   12   14 2
  25   13   28 1
  26   15   16 ar
  27   15   29 1
  28   16   17 ar
  29   16   30 1
  30   17   18 ar
  31   17   31 1
  32   18   32 1
  33   19   20 am
  34   19   23 1
  35   20   21 1
  36   20   22 2
  37   23   33 1
  38   23   34 1
  39   23   35 1

#	End of record

