#	Name: ASD01910408
#	Creating user name:	WinNT
#	Creation time:	15. 06. 2019 19:55

#	Modifying user name:	WinNT
#	Modification time:	15. 06. 2019 19:55

#	Program:	/corina/corina34_cracker 3.40 0067  02.08.2006

@<TRIPOS>MOLECULE
ASD01910408
  52   55    0    0    0
SMALL
NO_CHARGES


@<TRIPOS>ATOM
   1 C1            -0.0316     1.4271    -0.1382 C.ar    
   2 C2            -0.0099    -0.0046    -0.1208 C.1     
   3 C3             0.0079    -1.1784    -0.1066 C.1     
   4 C4             0.0295    -2.6102    -0.0893 C.ar    
   5 C5             0.7021    -3.3123    -1.0956 C.ar    
   6 C6             0.7228    -4.6777    -1.0782 C.ar    
   7 C7             0.0721    -5.3740    -0.0553 C.ar    
   8 C8            -0.6004    -4.6732     0.9502 C.ar    
   9 C9            -0.6170    -3.3076     0.9372 C.ar    
  10 C10            0.0949    -6.8500    -0.0371 C.2     
  11 O11           -0.9425    -7.4726     0.0833 O.2     
  12 C12           -0.7024     2.1315     0.8654 C.ar    
  13 C13           -0.7185     3.5103     0.8423 C.ar    
  14 C14           -0.0727     4.1964    -0.1712 C.ar    
  15 C15            0.5933     3.5058    -1.1686 C.ar    
  16 C16            0.6230     2.1271    -1.1556 C.ar    
  17 N17            1.2656    -7.5074    -0.1540 N.am    
  18 C18            1.3147    -8.9725    -0.0547 C.3     
  19 C19            2.3453    -9.3603     1.0102 C.3     
  20 C20            3.6886    -8.7077     0.6759 C.3     
  21 C21            3.5343    -7.1851     0.6849 C.3     
  22 C22            2.5163    -6.7731    -0.3893 C.3     
  23 C23            4.7138    -9.1145     1.7028 C.ar    
  24 C24            6.0470    -9.2072     1.3491 C.ar    
  25 C25            6.9877    -9.5803     2.2904 C.ar    
  26 C26            6.5949    -9.8609     3.5870 C.ar    
  27 C27            5.2605    -9.7679     3.9404 C.ar    
  28 C28            4.3215    -9.3892     2.9996 C.ar    
  29 Cl29           7.7758   -10.3300     4.7698 Cl      
  30 O30            4.1165    -9.1352    -0.6188 O.3     
  31 H31            1.2045    -2.7745    -1.8861 H       
  32 H32            1.2416    -5.2198    -1.8550 H       
  33 H33           -1.1035    -5.2117     1.7398 H       
  34 H34           -1.1363    -2.7663     1.7142 H       
  35 H35           -1.2072     1.5974     1.6568 H       
  36 H36           -1.2368     4.0560     1.6169 H       
  37 H37           -0.0887     5.2762    -0.1841 H       
  38 H38            1.0948     4.0480    -1.9565 H       
  39 H39            1.1433     1.5894    -1.9344 H       
  40 H40            0.3337    -9.3524     0.2307 H       
  41 H41            1.6065    -9.3944    -1.0165 H       
  42 H42            2.0064    -9.0154     1.9871 H       
  43 H43            2.4614   -10.4440     1.0266 H       
  44 H44            3.1842    -6.8607     1.6649 H       
  45 H45            4.4966    -6.7206     0.4698 H       
  46 H46            2.9086    -7.0159    -1.3768 H       
  47 H47            2.3277    -5.7016    -0.3221 H       
  48 H48            6.3535    -8.9885     0.3368 H       
  49 H49            8.0292    -9.6531     2.0139 H       
  50 H50            4.9533    -9.9868     4.9524 H       
  51 H51            3.2798    -9.3166     3.2754 H       
  52 H52            4.9631    -8.7599    -0.8970 H       
@<TRIPOS>BOND
   1    1    2 1
   2    1   12 ar
   3    1   16 ar
   4    2    3 3
   5    3    4 1
   6    4    5 ar
   7    4    9 ar
   8    5    6 ar
   9    5   31 1
  10    6    7 ar
  11    6   32 1
  12    7    8 ar
  13    7   10 1
  14    8    9 ar
  15    8   33 1
  16    9   34 1
  17   10   11 2
  18   10   17 am
  19   12   13 ar
  20   12   35 1
  21   13   14 ar
  22   13   36 1
  23   14   15 ar
  24   14   37 1
  25   15   16 ar
  26   15   38 1
  27   16   39 1
  28   17   18 1
  29   17   22 1
  30   18   19 1
  31   18   40 1
  32   18   41 1
  33   19   20 1
  34   19   42 1
  35   19   43 1
  36   20   21 1
  37   20   23 1
  38   20   30 1
  39   21   22 1
  40   21   44 1
  41   21   45 1
  42   22   46 1
  43   22   47 1
  44   23   24 ar
  45   23   28 ar
  46   24   25 ar
  47   24   48 1
  48   25   26 ar
  49   25   49 1
  50   26   27 ar
  51   26   29 1
  52   27   28 ar
  53   27   50 1
  54   28   51 1
  55   30   52 1

#	End of record

