#	Name: ASD07930288
#	Creating user name:	WinNT
#	Creation time:	15. 06. 2019 21:12

#	Modifying user name:	WinNT
#	Modification time:	15. 06. 2019 21:12

#	Program:	/corina/corina34_cracker 3.40 0067  02.08.2006

@<TRIPOS>MOLECULE
ASD07930288
  57   61    0    0    0
SMALL
NO_CHARGES


@<TRIPOS>ATOM
   1 C1            -0.2660     0.4345    -1.6213 C.2     
   2 C2            -0.1138    -0.9132    -1.7995 C.2     
   3 C3             1.2204    -1.4994    -1.6500 C.2     
   4 N4             2.2583    -0.7029    -1.3409 N.am    
   5 C5             2.0798     0.6511    -1.1684 C.2     
   6 C6             0.8499     1.2182    -1.3024 C.2     
   7 C7             3.6083    -1.2590    -1.1775 C.3     
   8 C8             4.6060    -0.2824    -1.8178 C.3     
   9 N9             4.4902     1.0156    -1.1379 N.am    
  10 C10            3.2561     1.4842    -0.8343 C.2     
  11 C11            5.6869     1.7879    -0.7950 C.3     
  12 O12            3.1178     2.5668    -0.2984 O.2     
  13 O13            1.3877    -2.6973    -1.8040 O.2     
  14 N14           -1.2121    -1.7169    -2.1182 N.pl3   
  15 C15           -1.4004    -2.4065    -3.2741 C.2     
  16 N16           -2.5402    -3.0379    -3.2001 N.2     
  17 C17           -3.1147    -2.7811    -2.0154 C.2     
  18 C18           -2.3006    -1.9635    -1.3213 C.2     
  19 C19           -4.4398    -3.3196    -1.5407 C.3     
  20 C20            6.1062     2.6385    -1.9956 C.3     
  21 O21            5.1205     3.6454    -2.2336 O.3     
  22 C22            5.2688     4.4021    -3.3537 C.ar    
  23 C23            6.2766     4.1119    -4.2587 C.ar    
  24 C24            6.4273     4.8819    -5.3971 C.ar    
  25 C25            5.5721     5.9441    -5.6364 C.ar    
  26 C26            4.5627     6.2393    -4.7367 C.ar    
  27 C27            4.4039     5.4669    -3.5959 C.ar    
  28 N28            3.1714     5.1369    -1.4475 N.2     
  29 N29            3.3816     5.7640    -2.6824 N.pl3   
  30 F30            5.7235     6.6939    -6.7500 F       
  31 C31            2.1255     5.6852    -0.8828 C.2     
  32 C32            1.6361     6.6779    -1.7383 C.2     
  33 C33            2.4252     6.7069    -2.8376 C.2     
  34 C34            1.5478     5.3110     0.4578 C.3     
  35 F35            2.3548     4.3388     1.0585 F       
  36 F36            1.4959     6.4446     1.2761 F       
  37 F37            0.2562     4.8023     0.2835 F       
  38 H38           -1.2386     0.8914    -1.7301 H       
  39 H39            0.7334     2.2826    -1.1615 H       
  40 H40            3.8337    -1.3731    -0.1172 H       
  41 H41            3.6704    -2.2272    -1.6742 H       
  42 H42            5.6195    -0.6667    -1.7032 H       
  43 H43            4.3740    -0.1634    -2.8762 H       
  44 H44            5.4694     2.4378     0.0525 H       
  45 H45            6.4961     1.1065    -0.5322 H       
  46 H46           -0.7210    -2.4280    -4.1133 H       
  47 H47           -2.4747    -1.5714    -0.3302 H       
  48 H48           -4.2823    -4.2632    -1.0183 H       
  49 H49           -4.9020    -2.6018    -0.8631 H       
  50 H50           -5.0933    -3.4834    -2.3975 H       
  51 H51            7.0660     3.1116    -1.7882 H       
  52 H52            6.1971     2.0035    -2.8769 H       
  53 H53            6.9453     3.2839    -4.0747 H       
  54 H54            7.2141     4.6545    -6.1011 H       
  55 H55            3.8968     7.0685    -4.9248 H       
  56 H56            0.7794     7.3094    -1.5544 H       
  57 H57            2.3113     7.3650    -3.6863 H       
@<TRIPOS>BOND
   1    1    2 2
   2    1    6 1
   3    1   38 1
   4    2    3 1
   5    2   14 1
   6    3    4 am
   7    3   13 2
   8    4    5 1
   9    4    7 1
  10    5    6 2
  11    5   10 1
  12    6   39 1
  13    7    8 1
  14    7   40 1
  15    7   41 1
  16    8    9 1
  17    8   42 1
  18    8   43 1
  19    9   10 am
  20    9   11 1
  21   10   12 2
  22   11   20 1
  23   11   44 1
  24   11   45 1
  25   14   15 1
  26   14   18 1
  27   15   16 2
  28   15   46 1
  29   16   17 1
  30   17   18 2
  31   17   19 1
  32   18   47 1
  33   19   48 1
  34   19   49 1
  35   19   50 1
  36   20   21 1
  37   20   51 1
  38   20   52 1
  39   21   22 1
  40   22   23 ar
  41   22   27 ar
  42   23   24 ar
  43   23   53 1
  44   24   25 ar
  45   24   54 1
  46   25   26 ar
  47   25   30 1
  48   26   27 ar
  49   26   55 1
  50   27   29 1
  51   28   29 1
  52   28   31 2
  53   29   33 1
  54   31   32 1
  55   31   34 1
  56   32   33 2
  57   32   56 1
  58   33   57 1
  59   34   35 1
  60   34   36 1
  61   34   37 1

#	End of record

