#	Name: ASD01840174
#	Creating user name:	WinNT
#	Creation time:	15. 06. 2019 19:37

#	Modifying user name:	WinNT
#	Modification time:	15. 06. 2019 19:37

#	Program:	/corina/corina34_cracker 3.40 0067  02.08.2006

@<TRIPOS>MOLECULE
ASD01840174
  43   46    0    0    0
SMALL
NO_CHARGES


@<TRIPOS>ATOM
   1 C1            -1.6389     1.7531    -0.6325 C.3     
   2 C2            -1.3276     0.2535    -0.4774 C.3     
   3 N3            -1.0075    -0.4160    -1.7405 N.am    
   4 C4            -1.2057    -1.7429    -1.8689 C.2     
   5 C5            -0.8862    -2.4112    -3.1296 C.2     
   6 O6            -1.6506    -2.3852    -0.9352 O.2     
   7 C7            -1.0494    -3.7380    -3.3575 C.2     
   8 C8            -0.6599    -4.1611    -4.6899 C.ar    
   9 C9            -0.1910    -3.0962    -5.4708 C.ar    
  10 S10           -0.2489    -1.6013    -4.5475 S.3     
  11 C11           -0.6868    -5.4432    -5.2845 C.ar    
  12 C12           -0.2527    -5.5625    -6.5864 C.ar    
  13 N13            0.1734    -4.4989    -7.2459 N.ar    
  14 N14            0.2042    -3.3295    -6.7245 N.ar    
  15 C15           -0.2631    -6.9100    -7.2611 C.3     
  16 C16           -1.1755    -6.6443    -4.5167 C.3     
  17 N17           -1.5451    -4.6138    -2.4011 N.pl3   
  18 C18           -0.0880     0.6944     0.3217 C.3     
  19 N19           -0.1928     1.9749    -0.4121 N.3     
  20 C20            0.0233     3.0612     0.4419 C.ar    
  21 C21            1.1884     3.1435     1.1998 C.ar    
  22 C22           -0.9199     4.0784     0.5427 C.ar    
  23 C23           -0.6610     5.1347     1.4031 C.ar    
  24 C24            0.5151     5.1440     2.1270 C.ar    
  25 N25            1.3943     4.1670     2.0060 N.ar    
  26 F26            2.1164     2.1658     1.1089 F       
  27 H27           -1.9787     2.0301    -1.6305 H       
  28 H28           -2.2706     2.1547     0.1598 H       
  29 H29           -2.0642    -0.2884     0.1159 H       
  30 H30           -0.6530     0.0957    -2.4844 H       
  31 H31           -1.2213    -7.0600    -7.7584 H       
  32 H32            0.5393    -6.9539    -7.9975 H       
  33 H33           -0.1147    -7.6909    -6.5152 H       
  34 H34           -2.2624    -6.6978    -4.5791 H       
  35 H35           -0.7421    -7.5491    -4.9429 H       
  36 H36           -0.8755    -6.5548    -3.4726 H       
  37 H37           -1.5300    -4.3669    -1.4632 H       
  38 H38           -1.9066    -5.4725    -2.6708 H       
  39 H39           -0.2660     0.7864     1.3931 H       
  40 H40            0.8115     0.1255     0.0861 H       
  41 H41           -1.8317     4.0465    -0.0353 H       
  42 H42           -1.3714     5.9417     1.5057 H       
  43 H43            0.7207     5.9650     2.7978 H       
@<TRIPOS>BOND
   1    1    2 1
   2    1   19 1
   3    1   27 1
   4    1   28 1
   5    2    3 1
   6    2   18 1
   7    2   29 1
   8    3    4 am
   9    3   30 1
  10    4    5 1
  11    4    6 2
  12    5    7 2
  13    5   10 1
  14    7    8 1
  15    7   17 1
  16    8    9 ar
  17    8   11 ar
  18    9   10 1
  19    9   14 ar
  20   11   12 ar
  21   11   16 1
  22   12   13 ar
  23   12   15 1
  24   13   14 ar
  25   15   31 1
  26   15   32 1
  27   15   33 1
  28   16   34 1
  29   16   35 1
  30   16   36 1
  31   17   37 1
  32   17   38 1
  33   18   19 1
  34   18   39 1
  35   18   40 1
  36   19   20 1
  37   20   22 ar
  38   20   21 ar
  39   21   25 ar
  40   21   26 1
  41   22   23 ar
  42   22   41 1
  43   23   24 ar
  44   23   42 1
  45   24   25 ar
  46   24   43 1

#	End of record

