#	Name: ASD01230348
#	Creating user name:	WinNT
#	Creation time:	15. 06. 2019 19:14

#	Modifying user name:	WinNT
#	Modification time:	15. 06. 2019 19:14

#	Program:	/corina/corina34_cracker 3.40 0067  02.08.2006

@<TRIPOS>MOLECULE
ASD01230348
  32   33    0    0    0
SMALL
NO_CHARGES


@<TRIPOS>ATOM
   1 C1            -0.0151     1.3725     0.0143 C.ar    
   2 C2             0.0045    -0.0047     0.0093 C.ar    
   3 C3             1.2088    -0.6866    -0.0054 C.ar    
   4 C4             2.3964     0.0238    -0.0016 C.ar    
   5 C5             2.3778     1.4030     0.0171 C.ar    
   6 C6             1.1791     2.1001     0.0046 C.ar    
   7 N7             1.0895     3.4843    -0.0546 N.3     
   8 S8             3.9059     2.2927     0.0890 S.o2    
   9 N9             3.4490     3.8904    -0.0868 N.am    
  10 C10            2.1696     4.2431     0.5626 C.3     
  11 Cl11           1.2295    -2.4224    -0.0277 Cl      
  12 O12            4.4061     2.1489     1.4112 O.2     
  13 O13            4.6428     1.9431    -1.0746 O.2     
  14 C14            4.2532     4.8650    -0.8281 C.3     
  15 C15            1.9050     5.7402     0.3908 C.3     
  16 C16           -0.2197     3.9481     0.4237 C.3     
  17 C17           -0.3685     3.6119     1.9088 C.3     
  18 H18           -0.9604     1.8946     0.0213 H       
  19 H19           -0.9246    -0.5553     0.0173 H       
  20 H20            3.3394    -0.5025    -0.0130 H       
  21 H21            2.2230     4.0021     1.6243 H       
  22 H22            5.1475     4.3778    -1.2166 H       
  23 H23            3.6678     5.2640    -1.6565 H       
  24 H24            4.5425     5.6785    -0.1627 H       
  25 H25            0.9602     5.9993     0.8685 H       
  26 H26            2.7132     6.3073     0.8526 H       
  27 H27            1.8531     5.9805    -0.6711 H       
  28 H28           -0.2957     5.0267     0.2859 H       
  29 H29           -1.0093     3.4531    -0.1418 H       
  30 H30           -1.3400     3.9560     2.2637 H       
  31 H31           -0.2926     2.5333     2.0466 H       
  32 H32            0.4210     4.1069     2.4743 H       
@<TRIPOS>BOND
   1    1    2 ar
   2    1    6 ar
   3    1   18 1
   4    2    3 ar
   5    2   19 1
   6    3    4 ar
   7    3   11 1
   8    4    5 ar
   9    4   20 1
  10    5    6 ar
  11    5    8 1
  12    6    7 1
  13    7   10 1
  14    7   16 1
  15    8    9 am
  16    8   12 2
  17    8   13 2
  18    9   10 1
  19    9   14 1
  20   10   15 1
  21   10   21 1
  22   14   22 1
  23   14   23 1
  24   14   24 1
  25   15   25 1
  26   15   26 1
  27   15   27 1
  28   16   17 1
  29   16   28 1
  30   16   29 1
  31   17   30 1
  32   17   31 1
  33   17   32 1

#	End of record

