#	Name: ASD05130034
#	Creating user name:	WinNT
#	Creation time:	15. 06. 2019 20:56

#	Modifying user name:	WinNT
#	Modification time:	15. 06. 2019 20:56

#	Program:	/corina/corina34_cracker 3.40 0067  02.08.2006

@<TRIPOS>MOLECULE
ASD05130034
  51   54    0    0    0
SMALL
NO_CHARGES


@<TRIPOS>ATOM
   1 N1             0.0617     1.2269     0.0433 N.am    
   2 C2             0.0642     0.0375     0.6773 C.2     
   3 O3             1.1057    -0.4209     1.1057 O.2     
   4 N4            -1.0879    -0.6437     0.8364 N.am    
   5 C5            -1.0696    -1.9318     1.3861 C.ar    
   6 C6            -2.2013    -2.4360     2.0166 C.ar    
   7 C7            -2.1789    -3.7102     2.5582 C.ar    
   8 C8            -1.0305    -4.4797     2.4713 C.ar    
   9 C9             0.0947    -3.9783     1.8444 C.ar    
  10 C10            0.0767    -2.7095     1.2973 C.ar    
  11 F11           -3.2771    -4.2027     3.1719 F       
  12 F12           -3.3206    -1.6842     2.1011 F       
  13 C13            1.2423     1.9766    -0.0443 C.ar    
  14 C14            1.1794     3.3592    -0.1899 C.ar    
  15 C15            2.3430     4.1029    -0.2767 C.ar    
  16 C16            3.5732     3.4767    -0.2193 C.ar    
  17 C17            3.6443     2.0907    -0.0733 C.ar    
  18 C18            2.4719     1.3421     0.0198 C.ar    
  19 N19            6.9757     0.8875     1.2595 N.am    
  20 C20            5.7769     1.5001     1.2026 C.2     
  21 C21            4.9626     1.4171    -0.0119 C.2     
  22 C22            5.4269     0.7130    -1.0893 C.2     
  23 C23            6.6889     0.0783    -1.0050 C.ar    
  24 C24            7.2031    -0.6522    -2.0833 C.ar    
  25 N25            8.3779    -1.2357    -1.9887 N.ar    
  26 C26            9.1186    -1.1618    -0.8880 C.ar    
  27 C27            8.6845    -0.4588     0.2269 C.ar    
  28 C28            7.4497     0.1775     0.1805 C.ar    
  29 O29            5.3688     2.1252     2.1653 O.2     
  30 N30           10.3498    -1.8002    -0.8526 N.pl3   
  31 C31           11.1779    -1.7279     0.3537 C.3     
  32 C32            7.7835     0.9831     2.4779 C.3     
  33 F33           -0.0208     3.9768    -0.2472 F       
  34 Cl34           5.0303     4.4139    -0.3292 Cl      
  35 H35           -0.7564     1.5621    -0.3558 H       
  36 H36           -1.9296    -0.2418     0.5702 H       
  37 H37           -1.0142    -5.4732     2.8944 H       
  38 H38            0.9885    -4.5810     1.7783 H       
  39 H39            0.9556    -2.3215     0.8040 H       
  40 H40            2.2894     5.1756    -0.3901 H       
  41 H41            2.5223     0.2697     0.1376 H       
  42 H42            4.8379     0.6422    -1.9918 H       
  43 H43            6.6324    -0.7371    -2.9963 H       
  44 H44            9.2962    -0.4064     1.1155 H       
  45 H45           10.6622    -2.2945    -1.6265 H       
  46 H46           12.1010    -2.2854     0.1946 H       
  47 H47           11.4152    -0.6862     0.5697 H       
  48 H48           10.6338    -2.1584     1.1944 H       
  49 H49            7.2547     1.5832     3.2183 H       
  50 H50            7.9581    -0.0160     2.8774 H       
  51 H51            8.7389     1.4530     2.2445 H       
@<TRIPOS>BOND
   1    1    2 am
   2    1   13 1
   3    1   35 1
   4    2    3 2
   5    2    4 am
   6    4    5 1
   7    4   36 1
   8    5    6 ar
   9    5   10 ar
  10    6    7 ar
  11    6   12 1
  12    7    8 ar
  13    7   11 1
  14    8    9 ar
  15    8   37 1
  16    9   10 ar
  17    9   38 1
  18   10   39 1
  19   13   14 ar
  20   13   18 ar
  21   14   15 ar
  22   14   33 1
  23   15   16 ar
  24   15   40 1
  25   16   17 ar
  26   16   34 1
  27   17   18 ar
  28   17   21 1
  29   18   41 1
  30   19   20 am
  31   19   28 1
  32   19   32 1
  33   20   21 1
  34   20   29 2
  35   21   22 2
  36   22   23 1
  37   22   42 1
  38   23   24 ar
  39   23   28 ar
  40   24   25 ar
  41   24   43 1
  42   25   26 ar
  43   26   27 ar
  44   26   30 1
  45   27   28 ar
  46   27   44 1
  47   30   31 1
  48   30   45 1
  49   31   46 1
  50   31   47 1
  51   31   48 1
  52   32   49 1
  53   32   50 1
  54   32   51 1

#	End of record

