#	Name: ASD03091833
#	Creating user name:	WinNT
#	Creation time:	15. 06. 2019 20:31

#	Modifying user name:	WinNT
#	Modification time:	15. 06. 2019 20:31

#	Program:	/corina/corina34_cracker 3.40 0067  02.08.2006

@<TRIPOS>MOLECULE
ASD03091833
  47   51    0    0    0
SMALL
NO_CHARGES


@<TRIPOS>ATOM
   1 N1            -0.0165     1.3637     0.0095 N.pl3   
   2 C2             0.0021    -0.0041     0.0020 C.2     
   3 C3             1.2706    -0.4450    -0.0125 C.2     
   4 C4             2.1353     0.7366    -0.0144 C.ar    
   5 C5             3.5207     0.9230    -0.0272 C.ar    
   6 C6             4.0375     2.1846    -0.0261 C.ar    
   7 C7             3.1890     3.2976    -0.0116 C.ar    
   8 C8             1.8098     3.1298     0.0013 C.ar    
   9 C9             1.2728     1.8491    -0.0002 C.ar    
  10 C10            3.7652     4.6634    -0.0095 C.ar    
  11 C11            5.1431     4.8399    -0.1271 C.ar    
  12 N12            2.9676     5.7226     0.0990 N.ar    
  13 N13            5.6541     6.0573    -0.1255 N.ar    
  14 C14            4.8576     7.1114    -0.0121 C.ar    
  15 C15            3.4820     6.9372     0.1002 C.ar    
  16 O16            5.3845     8.3617    -0.0106 O.3     
  17 C17            8.6847     9.9522    -0.8358 C.3     
  18 C18            7.1573     9.7798    -0.8408 C.3     
  19 C19            6.8042     8.4676    -0.1348 C.3     
  20 C20            7.4405     8.4423     1.2579 C.3     
  21 C21            8.9487     8.7052     1.1206 C.3     
  22 C22            9.4871     7.7934    -0.0059 C.3     
  23 C23            9.3127     8.6173    -1.2987 C.3     
  24 N24            9.1089    10.0828     0.5836 N.3     
  25 C25           10.5067    10.5249     0.6767 C.3     
  26 H26           -0.8178     1.9102     0.0165 H       
  27 H27           -0.8738    -0.6359     0.0073 H       
  28 H28            1.5921    -1.4761    -0.0207 H       
  29 H29            4.1810     0.0684    -0.0378 H       
  30 H30            5.1082     2.3261    -0.0361 H       
  31 H31            1.1585     3.9912     0.0129 H       
  32 H32            5.7920     3.9815    -0.2191 H       
  33 H33            2.8346     7.7972     0.1883 H       
  34 H34            9.0049    10.7934    -1.4505 H       
  35 H35            6.6941    10.6140    -0.3138 H       
  36 H36            6.7966     9.7498    -1.8689 H       
  37 H37            7.1805     7.6284    -0.7198 H       
  38 H38            6.9901     9.2163     1.8792 H       
  39 H39            7.2803     7.4657     1.7148 H       
  40 H40            9.4789     8.5552     2.0610 H       
  41 H41           10.5403     7.5668     0.1602 H       
  42 H42            8.9045     6.8738    -0.0607 H       
  43 H43            8.6443     8.1029    -1.9891 H       
  44 H44           10.2801     8.7959    -1.7681 H       
  45 H45           10.6145    11.4938     0.1892 H       
  46 H46           10.7910    10.6122     1.7254 H       
  47 H47           11.1516     9.7968     0.1848 H       
@<TRIPOS>BOND
   1    1    2 1
   2    1    9 1
   3    1   26 1
   4    2    3 2
   5    2   27 1
   6    3    4 1
   7    3   28 1
   8    4    5 ar
   9    4    9 ar
  10    5    6 ar
  11    5   29 1
  12    6    7 ar
  13    6   30 1
  14    7    8 ar
  15    7   10 1
  16    8    9 ar
  17    8   31 1
  18   10   11 ar
  19   10   12 ar
  20   11   13 ar
  21   11   32 1
  22   12   15 ar
  23   13   14 ar
  24   14   15 ar
  25   14   16 1
  26   15   33 1
  27   16   19 1
  28   17   18 1
  29   17   23 1
  30   17   24 1
  31   17   34 1
  32   18   19 1
  33   18   35 1
  34   18   36 1
  35   19   20 1
  36   19   37 1
  37   20   21 1
  38   20   38 1
  39   20   39 1
  40   21   22 1
  41   21   24 1
  42   21   40 1
  43   22   23 1
  44   22   41 1
  45   22   42 1
  46   23   43 1
  47   23   44 1
  48   24   25 1
  49   25   45 1
  50   25   46 1
  51   25   47 1

#	End of record

