#	Name: ASD01150322
#	Creating user name:	WinNT
#	Creation time:	15. 06. 2019 19:04

#	Modifying user name:	WinNT
#	Modification time:	15. 06. 2019 19:04

#	Program:	/corina/corina34_cracker 3.40 0067  02.08.2006

@<TRIPOS>MOLECULE
ASD01150322
  68   70    0    0    0
SMALL
NO_CHARGES


@<TRIPOS>ATOM
   1 N1            -0.0169     1.3927     0.0097 N.pl3   
   2 C2             0.0021    -0.0041     0.0020 C.2     
   3 C3            -1.3282    -0.4052     0.0126 C.2     
   4 N4            -2.0859     0.6950     0.0257 N.2     
   5 C5            -1.3234     1.7683     0.0301 C.2     
   6 C6             1.1389    -0.8368    -0.0137 C.2     
   7 C7             1.0964     2.2430     0.0036 C.ar    
   8 C8             1.3307     3.0747    -1.0833 C.ar    
   9 C9             2.4290     3.9122    -1.0861 C.ar    
  10 C10            3.2948     3.9230    -0.0079 C.ar    
  11 C11            3.0644     3.0955     1.0758 C.ar    
  12 C12            1.9648     2.2599     1.0870 C.ar    
  13 N13           -1.7777     3.0669     0.0432 N.3     
  14 C14           -3.2460     3.1109     0.0512 C.3     
  15 C15           -1.2227     3.8073     1.1841 C.3     
  16 O16            1.0069    -2.0474    -0.0189 O.2     
  17 O17            2.3747    -0.2923    -0.0230 O.3     
  18 C18            3.4817    -1.1958    -0.0388 C.3     
  19 C19            3.4083    -2.0704    -1.2921 C.3     
  20 C20            4.7889    -0.4008    -0.0475 C.3     
  21 C21            3.4331    -2.0838     1.2062 C.3     
  22 N22           -1.7882    -1.7164     0.0092 N.am    
  23 C23           -3.1127    -1.9658     0.0206 C.2     
  24 C24           -3.6002    -3.3553     0.0170 C.ar    
  25 O25           -3.9051    -1.0434     0.0338 O.2     
  26 C26           -2.6915    -4.4182     0.0019 C.ar    
  27 C27           -3.1510    -5.7150    -0.0009 C.ar    
  28 C28           -4.5181    -5.9741     0.0108 C.ar    
  29 C29           -5.4284    -4.9274     0.0259 C.ar    
  30 C30           -4.9788    -3.6185     0.0347 C.ar    
  31 O31           -5.8673    -2.5935     0.0495 O.3     
  32 O32            5.8958    -1.3044    -0.0633 O.3     
  33 C33            7.1715    -0.6605    -0.0725 C.3     
  34 C34           -7.2543    -2.9374     0.0553 C.3     
  35 O35           -4.9628    -7.2563     0.0071 O.3     
  36 C36           -3.9725    -8.2864    -0.0091 C.3     
  37 H37            0.6551     3.0664    -1.9258 H       
  38 H38            2.6119     4.5591    -1.9314 H       
  39 H39            4.1529     4.5788    -0.0124 H       
  40 H40            3.7428     3.1057     1.9161 H       
  41 H41            1.7854     1.6139     1.9337 H       
  42 H42           -3.6200     2.6008     0.9389 H       
  43 H43           -3.5784     4.1489     0.0615 H       
  44 H44           -3.6292     2.6155    -0.8410 H       
  45 H45           -0.1349     3.8183     1.1156 H       
  46 H46           -1.5979     4.8306     1.1704 H       
  47 H47           -1.5233     3.3225     2.1129 H       
  48 H48            3.4430    -1.4378    -2.1791 H       
  49 H49            4.2527    -2.7596    -1.3042 H       
  50 H50            2.4771    -2.6368    -1.2859 H       
  51 H51            4.8235     0.2318    -0.9345 H       
  52 H52            4.8411     0.2222     0.8454 H       
  53 H53            2.5018    -2.6502     1.2124 H       
  54 H54            4.2774    -2.7730     1.1941 H       
  55 H55            3.4853    -1.4607     2.0991 H       
  56 H56           -1.1562    -2.4521    -0.0013 H       
  57 H57           -1.6297    -4.2211    -0.0080 H       
  58 H58           -2.4480    -6.5348    -0.0126 H       
  59 H59           -6.4884    -5.1340     0.0350 H       
  60 H60            7.2556    -0.0333    -0.9600 H       
  61 H61            7.2732    -0.0429     0.8198 H       
  62 H62            7.9588    -1.4143    -0.0843 H       
  63 H63           -7.8542    -2.0274     0.0672 H       
  64 H64           -7.4890    -3.5156    -0.8384 H       
  65 H65           -7.4777    -3.5314     0.9414 H       
  66 H66           -3.3590    -8.1866    -0.9046 H       
  67 H67           -3.3416    -8.1979     0.8753 H       
  68 H68           -4.4615    -9.2606    -0.0105 H       
@<TRIPOS>BOND
   1    1    2 1
   2    1    7 1
   3    1    5 1
   4    2    3 2
   5    2    6 1
   6    3    4 1
   7    3   22 1
   8    4    5 2
   9    5   13 1
  10    6   16 2
  11    6   17 1
  12    7    8 ar
  13    7   12 ar
  14    8    9 ar
  15    8   37 1
  16    9   10 ar
  17    9   38 1
  18   10   11 ar
  19   10   39 1
  20   11   12 ar
  21   11   40 1
  22   12   41 1
  23   13   14 1
  24   13   15 1
  25   14   42 1
  26   14   43 1
  27   14   44 1
  28   15   45 1
  29   15   46 1
  30   15   47 1
  31   17   18 1
  32   18   19 1
  33   18   20 1
  34   18   21 1
  35   19   48 1
  36   19   49 1
  37   19   50 1
  38   20   32 1
  39   20   51 1
  40   20   52 1
  41   21   53 1
  42   21   54 1
  43   21   55 1
  44   22   23 am
  45   22   56 1
  46   23   24 1
  47   23   25 2
  48   24   26 ar
  49   24   30 ar
  50   26   27 ar
  51   26   57 1
  52   27   28 ar
  53   27   58 1
  54   28   29 ar
  55   28   35 1
  56   29   30 ar
  57   29   59 1
  58   30   31 1
  59   31   34 1
  60   32   33 1
  61   33   60 1
  62   33   61 1
  63   33   62 1
  64   34   63 1
  65   34   64 1
  66   34   65 1
  67   35   36 1
  68   36   66 1
  69   36   67 1
  70   36   68 1

#	End of record

