#	Name: ASD01911930
#	Creating user name:	WinNT
#	Creation time:	15. 06. 2019 19:58

#	Modifying user name:	WinNT
#	Modification time:	15. 06. 2019 19:58

#	Program:	/corina/corina34_cracker 3.40 0067  02.08.2006

@<TRIPOS>MOLECULE
ASD01911930
  38   40    0    0    0
SMALL
NO_CHARGES


@<TRIPOS>ATOM
   1 C1            -1.0485    -0.4835    -2.0507 C.ar    
   2 C2            -1.0615     0.0602    -0.7702 C.ar    
   3 C3            -1.0258     1.4450    -0.6417 C.ar    
   4 N4            -0.9809     2.1901    -1.7339 N.ar    
   5 C5            -0.9700     1.6370    -2.9300 C.ar    
   6 N6            -1.0029     0.3296    -3.0930 N.ar    
   7 O7            -1.1085    -0.7406     0.3268 O.3     
   8 C8            -1.1452    -2.0852     0.1339 C.ar    
   9 C9             0.0138    -2.7699    -0.2041 C.ar    
  10 C10           -0.0222    -4.1393    -0.4004 C.ar    
  11 C11           -1.2138    -4.8290    -0.2599 C.ar    
  12 C12           -2.3755    -4.1473     0.0783 C.ar    
  13 C13           -2.3391    -2.7742     0.2804 C.ar    
  14 N14           -3.5796    -4.8438     0.2198 N.am    
  15 C15           -3.5751    -6.1114     0.6777 C.2     
  16 C16           -4.8374    -6.8850     0.7286 C.ar    
  17 O17           -2.5354    -6.6197     1.0488 O.2     
  18 C18           -4.8255    -8.1927     1.2022 C.ar    
  19 F19            1.1071    -4.8036    -0.7298 F       
  20 C20           -6.0207    -8.9063     1.2435 C.ar    
  21 C21           -7.1824    -8.2767     0.8066 C.ar    
  22 C22           -7.1145    -6.9729     0.3488 C.ar    
  23 N23           -5.9712    -6.3217     0.3265 N.ar    
  24 O24           -6.0517   -10.1849     1.6985 O.3     
  25 C25           -7.3215   -10.8404     1.7054 C.3     
  26 H26           -1.0708    -1.5541    -2.1915 H       
  27 H27           -1.0348     1.9050     0.3353 H       
  28 H28           -0.9334     2.2735    -3.8018 H       
  29 H29            0.9446    -2.2334    -0.3145 H       
  30 H30           -1.2403    -5.8977    -0.4137 H       
  31 H31           -3.2414    -2.2424     0.5438 H       
  32 H32           -4.4182    -4.4146    -0.0115 H       
  33 H33           -3.9034    -8.6479     1.5325 H       
  34 H34           -8.1268    -8.8003     0.8244 H       
  35 H35           -8.0138    -6.4808     0.0089 H       
  36 H36           -7.2055   -11.8532     2.0911 H       
  37 H37           -8.0128   -10.2866     2.3407 H       
  38 H38           -7.7149   -10.8813     0.6897 H       
@<TRIPOS>BOND
   1    1    2 ar
   2    1    6 ar
   3    1   26 1
   4    2    3 ar
   5    2    7 1
   6    3    4 ar
   7    3   27 1
   8    4    5 ar
   9    5    6 ar
  10    5   28 1
  11    7    8 1
  12    8    9 ar
  13    8   13 ar
  14    9   10 ar
  15    9   29 1
  16   10   11 ar
  17   10   19 1
  18   11   12 ar
  19   11   30 1
  20   12   13 ar
  21   12   14 1
  22   13   31 1
  23   14   15 am
  24   14   32 1
  25   15   16 1
  26   15   17 2
  27   16   18 ar
  28   16   23 ar
  29   18   20 ar
  30   18   33 1
  31   20   21 ar
  32   20   24 1
  33   21   22 ar
  34   21   34 1
  35   22   23 ar
  36   22   35 1
  37   24   25 1
  38   25   36 1
  39   25   37 1
  40   25   38 1

#	End of record

