#	Name: ASD03090206
#	Creating user name:	WinNT
#	Creation time:	15. 06. 2019 20:28

#	Modifying user name:	WinNT
#	Modification time:	15. 06. 2019 20:28

#	Program:	/corina/corina34_cracker 3.40 0067  02.08.2006

@<TRIPOS>MOLECULE
ASD03090206
  39   41    0    0    0
SMALL
NO_CHARGES


@<TRIPOS>ATOM
   1 N1             0.4480     1.5147     1.4692 N.ar    
   2 C2             0.4099     0.1966     1.4357 C.ar    
   3 C3             1.5365    -0.5371     1.1252 C.ar    
   4 C4             2.7292     0.1378     0.8435 C.ar    
   5 C5             2.7234     1.5361     0.8903 C.ar    
   6 C6             1.5513     2.1899     1.2103 C.ar    
   7 C7             3.9630    -0.6068     0.5059 C.2     
   8 N8             5.7415    -3.4564    -0.5290 N.pl3   
   9 C9             4.8155    -4.4447    -0.8734 C.ar    
  10 C10            3.5991    -4.0907    -1.4430 C.ar    
  11 C11            2.6864    -5.0701    -1.7827 C.ar    
  12 C12            2.9824    -6.4016    -1.5563 C.ar    
  13 C13            4.1927    -6.7576    -0.9893 C.ar    
  14 C14            5.1119    -5.7840    -0.6522 C.ar    
  15 N15            4.0271    -1.8629     0.1123 N.2     
  16 C16            5.2985    -2.2025    -0.1035 C.2     
  17 N17            6.0670    -1.1676     0.1490 N.2     
  18 N18            5.2221    -0.1167     0.5411 N.pl3   
  19 C19            5.6261     1.2390     0.9222 C.3     
  20 C20            5.7323     2.1107    -0.3307 C.3     
  21 C21            6.1382     3.4728     0.0522 C.1     
  22 N22            6.4515     4.5240     0.3478 N.1     
  23 C23            4.5109    -8.2101    -0.7445 C.3     
  24 F24            3.4377    -9.0007    -1.1693 F       
  25 F25            5.6610    -8.5624    -1.4588 F       
  26 F26            4.7294    -8.4158     0.6220 F       
  27 H27           -0.5155    -0.3153     1.6547 H       
  28 H28            1.4983    -1.6161     1.1003 H       
  29 H29            3.6231     2.0952     0.6798 H       
  30 H30            1.5367     3.2691     1.2486 H       
  31 H31            6.6920    -3.6415    -0.5855 H       
  32 H32            3.3672    -3.0508    -1.6198 H       
  33 H33            1.7403    -4.7956    -2.2252 H       
  34 H34            2.2668    -7.1654    -1.8225 H       
  35 H35            6.0568    -6.0626    -0.2095 H       
  36 H36            4.8834     1.6630     1.5980 H       
  37 H37            6.5938     1.2026     1.4226 H       
  38 H38            6.4750     1.6867    -1.0065 H       
  39 H39            4.7646     2.1471    -0.8310 H       
@<TRIPOS>BOND
   1    1    2 ar
   2    1    6 ar
   3    2    3 ar
   4    2   27 1
   5    3    4 ar
   6    3   28 1
   7    4    5 ar
   8    4    7 1
   9    5    6 ar
  10    5   29 1
  11    6   30 1
  12    7   15 2
  13    7   18 1
  14    8    9 1
  15    8   16 1
  16    8   31 1
  17    9   10 ar
  18    9   14 ar
  19   10   11 ar
  20   10   32 1
  21   11   12 ar
  22   11   33 1
  23   12   13 ar
  24   12   34 1
  25   13   14 ar
  26   13   23 1
  27   14   35 1
  28   15   16 1
  29   16   17 2
  30   17   18 1
  31   18   19 1
  32   19   20 1
  33   19   36 1
  34   19   37 1
  35   20   21 1
  36   20   38 1
  37   20   39 1
  38   21   22 3
  39   23   24 1
  40   23   25 1
  41   23   26 1

#	End of record

