#	Name: ASD01881682
#	Creating user name:	WinNT
#	Creation time:	15. 06. 2019 19:43

#	Modifying user name:	WinNT
#	Modification time:	15. 06. 2019 19:43

#	Program:	/corina/corina34_cracker 3.40 0067  02.08.2006

@<TRIPOS>MOLECULE
ASD01881682
  43   46    0    0    0
SMALL
NO_CHARGES


@<TRIPOS>ATOM
   1 C1            -0.0187     1.5268     0.0104 C.3     
   2 C2             0.0021    -0.0041     0.0020 C.3     
   3 C3             1.0045    -0.5188     0.9916 C.2     
   4 C4             1.9767     0.1796     1.4845 C.2     
   5 C5             2.2233     1.6222     1.1416 C.3     
   6 N6             1.3772     1.9983    -0.0004 N.am    
   7 C7             1.8584     2.7433    -1.0152 C.2     
   8 O8             1.1319     3.0414    -1.9529 O.co2   
   9 O9             3.0215     3.1213    -0.9984 O.co2   
  10 C10            0.8702    -1.9498     1.4446 C.3     
  11 O11            1.9078    -2.2529     2.3793 O.3     
  12 N12            2.2221    -7.2585     4.5814 N.pl3   
  13 N13            3.3531    -7.0085     5.3727 N.2     
  14 N14            3.7366    -5.7930     5.1993 N.2     
  15 C15            2.9288    -5.1676     4.3199 C.ar    
  16 C16            1.9492    -6.0886     3.9098 C.ar    
  17 C17            2.9077    -3.8675     3.7964 C.ar    
  18 C18            1.9305    -3.5134     2.8893 C.ar    
  19 C19            0.9668    -4.4372     2.4923 C.ar    
  20 C20            0.9739    -5.7077     2.9952 C.ar    
  21 C21            1.4812    -8.5186     4.4842 C.3     
  22 C22            0.3706    -8.5397     5.5363 C.3     
  23 C23           -0.5948    -9.7266     5.5207 C.3     
  24 C24            0.4530    -9.6072     6.6293 C.3     
  25 Br25           4.2120    -2.6065     4.3297 Br      
  26 H26           -0.5387     1.8935    -0.8746 H       
  27 H27           -0.5217     1.8839     0.9091 H       
  28 H28           -0.9875    -0.3795     0.2627 H       
  29 H29            0.2667    -0.3556    -0.9952 H       
  30 H30            2.6477    -0.3009     2.1810 H       
  31 H31            1.9767     2.2478     1.9995 H       
  32 H32            3.2721     1.7600     0.8786 H       
  33 H33           -0.1002    -2.0907     1.9207 H       
  34 H34            0.9520    -2.6128     0.5833 H       
  35 H35            0.2071    -4.1468     1.7817 H       
  36 H36            0.2221    -6.4167     2.6813 H       
  37 H37            1.0421    -8.6061     3.4904 H       
  38 H38            2.1604    -9.3536     4.6561 H       
  39 H39           -0.0335    -7.5659     5.8129 H       
  40 H40           -1.6339    -9.5337     5.7875 H       
  41 H41           -0.4386   -10.4924     4.7610 H       
  42 H42            1.2985   -10.2944     6.5988 H       
  43 H43            0.1032    -9.3357     7.6253 H       
@<TRIPOS>BOND
   1    1    2 1
   2    1    6 1
   3    1   26 1
   4    1   27 1
   5    2    3 1
   6    2   28 1
   7    2   29 1
   8    3    4 2
   9    3   10 1
  10    4    5 1
  11    4   30 1
  12    5    6 1
  13    5   31 1
  14    5   32 1
  15    6    7 am
  16    7    8 ar
  17    7    9 ar
  18   10   11 1
  19   10   33 1
  20   10   34 1
  21   11   18 1
  22   12   13 1
  23   12   16 1
  24   12   21 1
  25   13   14 2
  26   14   15 1
  27   15   16 ar
  28   15   17 ar
  29   16   20 ar
  30   17   18 ar
  31   17   25 1
  32   18   19 ar
  33   19   20 ar
  34   19   35 1
  35   20   36 1
  36   21   22 1
  37   21   37 1
  38   21   38 1
  39   22   23 1
  40   22   24 1
  41   22   39 1
  42   23   24 1
  43   23   40 1
  44   23   41 1
  45   24   42 1
  46   24   43 1

#	End of record

