#	Name: ASD01190080
#	Creating user name:	WinNT
#	Creation time:	15. 06. 2019 19:07

#	Modifying user name:	WinNT
#	Modification time:	15. 06. 2019 19:07

#	Program:	/corina/corina34_cracker 3.40 0067  02.08.2006

@<TRIPOS>MOLECULE
ASD01190080
  53   56    0    0    0
SMALL
NO_CHARGES


@<TRIPOS>ATOM
   1 N1            -0.0780     1.9066     0.0335 N.am    
   2 N2            -0.3818     3.2209     0.4036 N.2     
   3 C3             0.7127     3.9076     0.5562 C.2     
   4 C4             1.8414     3.0219     0.2767 C.ar    
   5 C5             3.2295     3.1896     0.2771 C.ar    
   6 C6             4.0398     2.1369    -0.0381 C.ar    
   7 C7             3.4980     0.8992    -0.3602 C.ar    
   8 C8             2.1339     0.7108    -0.3670 C.ar    
   9 C9             1.2895     1.7692    -0.0486 C.ar    
  10 C10           -0.9782     0.9309    -0.1993 C.2     
  11 O11           -0.6017    -0.1802    -0.5162 O.2     
  12 N12           -2.2960     1.1876    -0.0808 N.am    
  13 C13           -3.2745     0.1271    -0.3339 C.3     
  14 C14           -4.6875     0.6780    -0.1316 C.3     
  15 C15            5.5357     2.3197    -0.0371 C.3     
  16 C16            6.0262     2.5025     1.4005 C.3     
  17 O17            6.1568     1.1670    -0.6094 O.3     
  18 F18            5.6941     1.3714     2.1539 F       
  19 F19            7.4149     2.6722     1.4015 F       
  20 F20            5.4181     3.6310     1.9608 F       
  21 N21            6.6934     5.5247    -1.4316 N.pl3   
  22 C22            6.5516     4.6235    -0.4119 C.2     
  23 C23            5.8934     3.5381    -0.8487 C.2     
  24 C24            5.5888     3.7628    -2.2638 C.ar    
  25 C25            4.9360     3.0159    -3.2465 C.ar    
  26 C26            4.8119     3.5194    -4.5105 C.ar    
  27 C27            5.3298     4.7683    -4.8261 C.ar    
  28 C28            5.9777     5.5216    -3.8722 C.ar    
  29 C29            6.1152     5.0287    -2.5785 C.ar    
  30 C30            7.3562     6.8263    -1.3183 C.3     
  31 C31            6.3269     7.8919    -1.0422 C.2     
  32 C32            6.4555     8.6718     0.0024 C.2     
  33 H33            0.7761     4.9480     0.8389 H       
  34 H34            3.6593     4.1487     0.5256 H       
  35 H35            4.1528     0.0769    -0.6079 H       
  36 H36            1.7214    -0.2550    -0.6190 H       
  37 H37           -2.5965     2.0745     0.1721 H       
  38 H38           -3.1668    -0.2297    -1.3582 H       
  39 H39           -3.1036    -0.6976     0.3580 H       
  40 H40           -4.7951     1.0348     0.8927 H       
  41 H41           -4.8584     1.5028    -0.8235 H       
  42 H42           -5.4155    -0.1110    -0.3200 H       
  43 H43            5.8916     0.9898    -1.5223 H       
  44 H44            6.9157     4.7642     0.5951 H       
  45 H45            4.5310     2.0434    -3.0084 H       
  46 H46            4.3073     2.9411    -5.2704 H       
  47 H47            5.2238     5.1528    -5.8298 H       
  48 H48            6.3775     6.4919    -4.1276 H       
  49 H49            8.0771     6.7971    -0.5013 H       
  50 H50            7.8730     7.0532    -2.2508 H       
  51 H51            5.4833     8.0125    -1.7056 H       
  52 H52            7.2992     8.5511     0.6658 H       
  53 H53            5.7179     9.4354     0.2003 H       
@<TRIPOS>BOND
   1    1    2 1
   2    1    9 1
   3    1   10 am
   4    2    3 2
   5    3    4 1
   6    3   33 1
   7    4    5 ar
   8    4    9 ar
   9    5    6 ar
  10    5   34 1
  11    6    7 ar
  12    6   15 1
  13    7    8 ar
  14    7   35 1
  15    8    9 ar
  16    8   36 1
  17   10   11 2
  18   10   12 am
  19   12   13 1
  20   12   37 1
  21   13   14 1
  22   13   38 1
  23   13   39 1
  24   14   40 1
  25   14   41 1
  26   14   42 1
  27   15   16 1
  28   15   17 1
  29   15   23 1
  30   16   18 1
  31   16   19 1
  32   16   20 1
  33   17   43 1
  34   21   22 1
  35   21   29 1
  36   21   30 1
  37   22   23 2
  38   22   44 1
  39   23   24 1
  40   24   25 ar
  41   24   29 ar
  42   25   26 ar
  43   25   45 1
  44   26   27 ar
  45   26   46 1
  46   27   28 ar
  47   27   47 1
  48   28   29 ar
  49   28   48 1
  50   30   31 1
  51   30   49 1
  52   30   50 1
  53   31   32 2
  54   31   51 1
  55   32   52 1
  56   32   53 1

#	End of record

