#	Name: ASD01881313
#	Creating user name:	WinNT
#	Creation time:	15. 06. 2019 19:42

#	Modifying user name:	WinNT
#	Modification time:	15. 06. 2019 19:42

#	Program:	/corina/corina34_cracker 3.40 0067  02.08.2006

@<TRIPOS>MOLECULE
ASD01881313
  59   60    0    0    0
SMALL
NO_CHARGES


@<TRIPOS>ATOM
   1 C1            -0.0309     1.1376    -0.0696 C.2     
   2 C2             0.0372    -0.2550     0.4086 C.ar    
   3 C3             1.2805    -0.8722     0.6082 C.ar    
   4 C4             1.3324    -2.1827     1.0583 C.ar    
   5 C5             0.1644    -2.8758     1.3080 C.ar    
   6 C6            -1.0658    -2.2699     1.1122 C.ar    
   7 C7            -1.1365    -0.9661     0.6713 C.ar    
   8 O8             0.9921     1.7544    -0.2921 O.2     
   9 O9            -1.2278     1.7250    -0.2653 O.3     
  10 O10            2.4270    -0.1905     0.3617 O.3     
  11 C11            3.6557    -0.8843     0.5878 C.3     
  12 C12            4.8306     0.0386     0.2580 C.3     
  13 C13            6.1461    -0.7042     0.5000 C.3     
  14 C14            7.3210     0.2186     0.1702 C.3     
  15 O15            8.5497    -0.4752     0.3963 O.3     
  16 C16            9.6963     0.2066     0.1497 C.ar    
  17 C17           10.9264    -0.4110     0.3496 C.ar    
  18 C18           12.0854     0.2686     0.1036 C.ar    
  19 C19           12.0382     1.5921    -0.3515 C.ar    
  20 C20           10.7999     2.2144    -0.5529 C.ar    
  21 C21            9.6377     1.5188    -0.3074 C.ar    
  22 C22           13.2829     2.3251    -0.6162 C.2     
  23 C23           13.2341     3.7877    -0.9760 C.3     
  24 C24           14.6563     4.3058    -1.1991 C.3     
  25 C25           14.6007     5.7555    -1.6850 C.3     
  26 O26           14.3503     1.7533    -0.5452 O.2     
  27 C27           15.4359     4.2382     0.1157 C.3     
  28 C28           13.4151    -0.4059     0.3226 C.3     
  29 C29           10.9806    -1.8350     0.8397 C.3     
  30 H30            2.2876    -2.6622     1.2135 H       
  31 H31            0.2103    -3.8965     1.6578 H       
  32 H32           -1.9737    -2.8204     1.3099 H       
  33 H33           -2.0978    -0.4962     0.5246 H       
  34 H34           -1.2219     2.6395    -0.5796 H       
  35 H35            3.7144    -1.1879     1.6330 H       
  36 H36            3.6970    -1.7673    -0.0500 H       
  37 H37            4.7718     0.3422    -0.7872 H       
  38 H38            4.7892     0.9215     0.8957 H       
  39 H39            6.2049    -1.0079     1.5452 H       
  40 H40            6.1875    -1.5872    -0.1377 H       
  41 H41            7.2622     0.5223    -0.8750 H       
  42 H42            7.2797     1.1016     0.8080 H       
  43 H43           10.7569     3.2349    -0.9037 H       
  44 H44            8.6805     1.9933    -0.4659 H       
  45 H45           12.6525     3.9182    -1.8886 H       
  46 H46           12.7671     4.3461    -0.1646 H       
  47 H47           15.1538     3.6902    -1.9485 H       
  48 H48           14.1032     6.3711    -0.9356 H       
  49 H49           15.6139     6.1245    -1.8440 H       
  50 H50           14.0453     5.8036    -2.6217 H       
  51 H51           15.4755     3.2054     0.4619 H       
  52 H52           16.4491     4.6072    -0.0433 H       
  53 H53           14.9384     4.8537     0.8651 H       
  54 H54           13.7811    -0.8035    -0.6240 H       
  55 H55           14.1300     0.3185     0.7130 H       
  56 H56           13.2962    -1.2203     1.0371 H       
  57 H57           10.9835    -2.5131    -0.0136 H       
  58 H58           11.8882    -1.9835     1.4248 H       
  59 H59           10.1095    -2.0383     1.4625 H       
@<TRIPOS>BOND
   1    1    2 1
   2    1    8 2
   3    1    9 1
   4    2    3 ar
   5    2    7 ar
   6    3    4 ar
   7    3   10 1
   8    4    5 ar
   9    4   30 1
  10    5    6 ar
  11    5   31 1
  12    6    7 ar
  13    6   32 1
  14    7   33 1
  15    9   34 1
  16   10   11 1
  17   11   12 1
  18   11   35 1
  19   11   36 1
  20   12   13 1
  21   12   37 1
  22   12   38 1
  23   13   14 1
  24   13   39 1
  25   13   40 1
  26   14   15 1
  27   14   41 1
  28   14   42 1
  29   15   16 1
  30   16   17 ar
  31   16   21 ar
  32   17   18 ar
  33   17   29 1
  34   18   19 ar
  35   18   28 1
  36   19   20 ar
  37   19   22 1
  38   20   21 ar
  39   20   43 1
  40   21   44 1
  41   22   23 1
  42   22   26 2
  43   23   24 1
  44   23   45 1
  45   23   46 1
  46   24   25 1
  47   24   27 1
  48   24   47 1
  49   25   48 1
  50   25   49 1
  51   25   50 1
  52   27   51 1
  53   27   52 1
  54   27   53 1
  55   28   54 1
  56   28   55 1
  57   28   56 1
  58   29   57 1
  59   29   58 1
  60   29   59 1

#	End of record

