#	Name: ASD01900748
#	Creating user name:	WinNT
#	Creation time:	15. 06. 2019 19:52

#	Modifying user name:	WinNT
#	Modification time:	15. 06. 2019 19:52

#	Program:	/corina/corina34_cracker 3.40 0067  02.08.2006

@<TRIPOS>MOLECULE
ASD01900748
  47   51    0    0    0
SMALL
NO_CHARGES


@<TRIPOS>ATOM
   1 C1            -0.0159     1.4086    -0.1141 C.ar    
   2 C2             0.0117     0.0195    -0.1182 C.ar    
   3 C3            -1.1603    -0.7072    -0.0664 C.ar    
   4 C4            -2.3833    -0.0522    -0.0091 C.ar    
   5 C5            -2.4090     1.3491    -0.0094 C.ar    
   6 O6            -3.5357    -0.7543     0.0537 O.3     
   7 C7            -4.7272    -0.1808    -0.1861 C.2     
   8 C8            -4.9048     1.1620    -0.2023 C.2     
   9 C9            -3.7318     2.0226     0.0390 C.2     
  10 C10           -5.8918    -1.0510    -0.4431 C.2     
  11 N11           -7.1164    -0.4756    -0.6898 N.2     
  12 C12           -8.2316    -1.0983    -0.3906 C.2     
  13 C13           -8.0508    -2.4485     0.1934 C.3     
  14 C14           -6.9817    -3.1881    -0.6809 C.3     
  15 C15           -5.7244    -2.4019    -0.4354 C.2     
  16 C16           -1.2278     2.0774    -0.0543 C.ar    
  17 C17           -9.1612    -3.3796     0.4482 C.2     
  18 C18           -8.8211    -4.6709     0.5280 C.2     
  19 S19           -7.0622    -4.7790     0.2202 S.3     
  20 O20            1.1469     2.1118    -0.1631 O.3     
  21 C21            2.3594     1.3575    -0.2174 C.3     
  22 C22            3.5529     2.3134    -0.2672 C.3     
  23 N23            4.7959     1.5401    -0.3228 N.pl3   
  24 C24            5.4373     1.1137    -1.4544 C.2     
  25 C25            6.5335     0.4430    -1.0516 C.2     
  26 N26            6.5607     0.4595     0.2893 N.2     
  27 C27            5.5261     1.1199     0.7326 C.2     
  28 N28           -3.8496     3.3057     0.2814 N.2     
  29 O29           -2.7125     4.0635     0.6525 O.3     
  30 H30            0.9594    -0.4965    -0.1628 H       
  31 H31           -1.1262    -1.7867    -0.0707 H       
  32 H32           -5.8788     1.5906    -0.3866 H       
  33 H33           -9.2052    -0.6613    -0.5565 H       
  34 H34           -7.5719    -2.2971     1.1608 H       
  35 H35           -7.2411    -3.2585    -1.7372 H       
  36 H36           -4.7672    -2.8707    -0.2609 H       
  37 H37           -1.2538     3.1570    -0.0506 H       
  38 H38          -10.1811    -3.0435     0.5632 H       
  39 H39           -9.4856    -5.4957     0.7390 H       
  40 H40            2.4352     0.7274     0.6689 H       
  41 H41            2.3580     0.7311    -1.1094 H       
  42 H42            3.4770     2.9435    -1.1534 H       
  43 H43            3.5542     2.9398     0.6249 H       
  44 H44            5.1241     1.2822    -2.4741 H       
  45 H45            7.2628    -0.0259    -1.6955 H       
  46 H46            5.2892     1.2950     1.7717 H       
  47 H47           -2.8980     4.9994     0.8105 H       
@<TRIPOS>BOND
   1    1    2 ar
   2    1   20 1
   3    1   16 ar
   4    2    3 ar
   5    2   30 1
   6    3    4 ar
   7    3   31 1
   8    4    5 ar
   9    4    6 1
  10    5   16 ar
  11    5    9 1
  12    6    7 1
  13    7    8 2
  14    7   10 1
  15    8    9 1
  16    8   32 1
  17    9   28 2
  18   10   11 1
  19   10   15 2
  20   11   12 2
  21   12   13 1
  22   12   33 1
  23   13   14 1
  24   13   17 1
  25   13   34 1
  26   14   15 1
  27   14   19 1
  28   14   35 1
  29   15   36 1
  30   16   37 1
  31   17   18 2
  32   17   38 1
  33   18   19 1
  34   18   39 1
  35   20   21 1
  36   21   22 1
  37   21   40 1
  38   21   41 1
  39   22   23 1
  40   22   42 1
  41   22   43 1
  42   23   24 1
  43   23   27 1
  44   24   25 2
  45   24   44 1
  46   25   26 1
  47   25   45 1
  48   26   27 2
  49   27   46 1
  50   28   29 1
  51   29   47 1

#	End of record

