#	Name: ASD01411055
#	Creating user name:	WinNT
#	Creation time:	15. 06. 2019 19:19

#	Modifying user name:	WinNT
#	Modification time:	15. 06. 2019 19:19

#	Program:	/corina/corina34_cracker 3.40 0067  02.08.2006

@<TRIPOS>MOLECULE
ASD01411055
  62   67    0    0    0
SMALL
NO_CHARGES


@<TRIPOS>ATOM
   1 C1             0.6371     0.2659    -1.1968 C.ar    
   2 C2             0.0033    -0.0061     0.0017 C.ar    
   3 C3             1.8238     0.9721    -1.2075 C.ar    
   4 C4             0.5556     0.4282     1.1935 C.ar    
   5 C5             2.3811     1.4097    -0.0131 C.ar    
   6 C6             1.7432     1.1356     1.1889 C.ar    
   7 Br7           -0.3151     0.0545     2.8300 Br      
   8 N8             3.5852     2.1259    -0.0212 N.am    
   9 C9             4.7443     1.4465     0.0614 C.2     
  10 C10            3.5406     3.4682    -0.1169 C.2     
  11 C11            6.0256     2.1588     0.0560 C.ar    
  12 O12            4.7284     0.2324     0.1415 O.2     
  13 C13            4.7830     4.2528    -0.1289 C.ar    
  14 O14            2.4666     4.0341    -0.1941 O.2     
  15 C15            6.0177     3.5702    -0.0379 C.ar    
  16 C16            7.2426     1.4879     0.1398 C.ar    
  17 C17            4.7807     5.6376    -0.2255 C.ar    
  18 C18            7.2291     4.2899    -0.0465 C.ar    
  19 C19            8.4316     2.1933     0.1319 C.ar    
  20 C20            5.9793     6.3380    -0.2328 C.ar    
  21 C21            8.4485     3.5778     0.0405 C.ar    
  22 C22            7.1899     5.6884    -0.1406 C.ar    
  23 N23            9.6516     4.2582     0.0338 N.pl3   
  24 C24           10.9124     3.5177     0.1241 C.3     
  25 H25            9.6611     5.2260    -0.0307 H       
  26 C26           12.0371     4.3435    -0.5065 C.3     
  27 C27           13.3617     3.5921    -0.3549 C.3     
  28 N28           13.6367     3.3647     1.0696 N.3     
  29 C29           12.5941     2.5340     1.6856 C.3     
  30 C30           11.2466     3.2538     1.5949 C.3     
  31 C31           15.3136     2.7763     2.7269 C.ar    
  32 C32           14.9712     1.7001     3.5240 C.ar    
  33 C33           15.2953     1.7045     4.8678 C.ar    
  34 C34           15.9621     2.7849     5.4145 C.ar    
  35 C35           16.3053     3.8608     4.6172 C.ar    
  36 C36           15.9800     3.8570     3.2737 C.ar    
  37 C37           14.9657     2.7689     1.2606 C.3     
  38 H38            0.2059    -0.0783    -2.1253 H       
  39 H39           -0.9249    -0.5583     0.0074 H       
  40 H40            2.3183     1.1838    -2.1441 H       
  41 H41            2.1740     1.4748     2.1193 H       
  42 H42            7.2579     0.4104     0.2118 H       
  43 H43            3.8444     6.1713    -0.2956 H       
  44 H44            9.3660     1.6559     0.1984 H       
  45 H45            5.9617     7.4152    -0.3085 H       
  46 H46            8.1091     6.2553    -0.1484 H       
  47 H47           10.8165     2.5693    -0.4044 H       
  48 H48           11.8256     4.4984    -1.5645 H       
  49 H49           12.1063     5.3081    -0.0036 H       
  50 H50           13.2965     2.6335    -0.8697 H       
  51 H51           14.1669     4.1839    -0.7902 H       
  52 H52           12.5325     1.5804     1.1612 H       
  53 H53           12.8418     2.3573     2.7323 H       
  54 H54           11.3034     4.2012     2.1309 H       
  55 H55           10.4703     2.6302     2.0383 H       
  56 H56           14.4502     0.8560     3.0969 H       
  57 H57           15.0271     0.8639     5.4907 H       
  58 H58           16.2147     2.7886     6.4645 H       
  59 H59           16.8257     4.7052     5.0444 H       
  60 H60           16.2475     4.6979     2.6509 H       
  61 H61           14.9599     1.7424     0.8938 H       
  62 H62           15.7062     3.3478     0.7086 H       
@<TRIPOS>BOND
   1    1    2 ar
   2    1    3 ar
   3    1   38 1
   4    2    4 ar
   5    2   39 1
   6    3    5 ar
   7    3   40 1
   8    4    6 ar
   9    4    7 1
  10    5    6 ar
  11    5    8 1
  12    6   41 1
  13    8   10 am
  14    8    9 am
  15    9   11 1
  16    9   12 2
  17   10   13 1
  18   10   14 2
  19   11   15 ar
  20   11   16 ar
  21   13   17 ar
  22   13   15 ar
  23   15   18 ar
  24   16   19 ar
  25   16   42 1
  26   17   20 ar
  27   17   43 1
  28   18   21 ar
  29   18   22 ar
  30   19   21 ar
  31   19   44 1
  32   20   22 ar
  33   20   45 1
  34   21   23 1
  35   22   46 1
  36   23   25 1
  37   23   24 1
  38   24   26 1
  39   24   30 1
  40   24   47 1
  41   26   27 1
  42   26   48 1
  43   26   49 1
  44   27   28 1
  45   27   50 1
  46   27   51 1
  47   28   29 1
  48   28   37 1
  49   29   30 1
  50   29   52 1
  51   29   53 1
  52   30   54 1
  53   30   55 1
  54   31   32 ar
  55   31   36 ar
  56   31   37 1
  57   32   33 ar
  58   32   56 1
  59   33   34 ar
  60   33   57 1
  61   34   35 ar
  62   34   58 1
  63   35   36 ar
  64   35   59 1
  65   36   60 1
  66   37   61 1
  67   37   62 1

#	End of record

