#	Name: ASD00170643
#	Creating user name:	WinNT
#	Creation time:	15. 06. 2019 18:32

#	Modifying user name:	WinNT
#	Modification time:	15. 06. 2019 18:32

#	Program:	/corina/corina34_cracker 3.40 0067  02.08.2006

@<TRIPOS>MOLECULE
ASD00170643
  40   42    0    0    0
SMALL
NO_CHARGES


@<TRIPOS>ATOM
   1 C1            -0.1308     1.5918     0.4082 C.2     
   2 O2             0.5043     1.2546    -0.5746 O.2     
   3 C3             0.4213     1.3610     1.7605 C.ar    
   4 C4             1.6201     0.6630     1.9182 C.ar    
   5 C5             2.1303     0.4512     3.1817 C.ar    
   6 C6             1.4559     0.9295     4.2930 C.ar    
   7 C7             0.2660     1.6224     4.1428 C.ar    
   8 C8            -0.2511     1.8453     2.8840 C.ar    
   9 Cl9            2.1044     0.6591     5.8805 Cl      
  10 C10           -3.7390     2.2899    -0.0304 C.2     
  11 C11           -2.6767     1.4884     0.0962 C.2     
  12 C12           -1.4372     2.2306     0.2508 C.2     
  13 C13           -1.6153     3.5905     0.2350 C.2     
  14 S14           -3.2609     3.9783     0.0356 S.3     
  15 C15           -2.7629    -0.0295     0.0793 C.3     
  16 C16           -4.1107    -0.4399    -0.5181 C.3     
  17 C17           -5.2301     0.3240     0.1957 C.3     
  18 C18           -5.1628     1.7995    -0.2128 C.3     
  19 O19           -6.4965    -0.2185    -0.1838 O.3     
  20 S20           -7.0583    -1.2296     0.8054 S.o2    
  21 O21           -8.1649    -1.8068     0.1261 O.2     
  22 O22           -5.9354    -2.0170     1.1775 O.2     
  23 C23           -7.6244    -0.2259     2.2063 C.3     
  24 N24           -0.6003     4.5168     0.3630 N.pl3   
  25 H25            2.1465     0.2893     1.0524 H       
  26 H26            3.0573    -0.0889     3.3050 H       
  27 H27           -0.2558     1.9924     5.0130 H       
  28 H28           -1.1767     2.3895     2.7678 H       
  29 H29           -1.9548    -0.4346    -0.5297 H       
  30 H30           -2.6829    -0.4114     1.0971 H       
  31 H31           -4.1263    -0.1998    -1.5812 H       
  32 H32           -4.2577    -1.5115    -0.3834 H       
  33 H33           -5.1022     0.2347     1.2745 H       
  34 H34           -5.8332     2.3797     0.4212 H       
  35 H35           -5.4566     1.9102    -1.2566 H       
  36 H36           -8.3185     0.5356     1.8507 H       
  37 H37           -8.1271    -0.8654     2.9318 H       
  38 H38           -6.7677     0.2553     2.6782 H       
  39 H39            0.3054     4.2217     0.5464 H       
  40 H40           -0.7925     5.4630     0.2696 H       
@<TRIPOS>BOND
   1    1    2 2
   2    1    3 1
   3    1   12 1
   4    3    4 ar
   5    3    8 ar
   6    4    5 ar
   7    4   25 1
   8    5    6 ar
   9    5   26 1
  10    6    7 ar
  11    6    9 1
  12    7    8 ar
  13    7   27 1
  14    8   28 1
  15   10   11 2
  16   10   14 1
  17   10   18 1
  18   11   12 1
  19   11   15 1
  20   12   13 2
  21   13   14 1
  22   13   24 1
  23   15   16 1
  24   15   29 1
  25   15   30 1
  26   16   17 1
  27   16   31 1
  28   16   32 1
  29   17   18 1
  30   17   19 1
  31   17   33 1
  32   18   34 1
  33   18   35 1
  34   19   20 1
  35   20   21 2
  36   20   22 2
  37   20   23 1
  38   23   36 1
  39   23   37 1
  40   23   38 1
  41   24   39 1
  42   24   40 1

#	End of record

