#	Name: ASD05430119
#	Creating user name:	WinNT
#	Creation time:	15. 06. 2019 20:59

#	Modifying user name:	WinNT
#	Modification time:	15. 06. 2019 20:59

#	Program:	/corina/corina34_cracker 3.40 0067  02.08.2006

@<TRIPOS>MOLECULE
ASD05430119
  63   68    0    0    0
SMALL
NO_CHARGES


@<TRIPOS>ATOM
   1 F1             9.5060     5.1380    -4.7882 F       
   2 C2             0.1426     1.2233    -0.9483 C.ar    
   3 C3             0.0191    -0.0128    -0.3147 C.ar    
   4 C4             1.0823    -0.5341     0.4112 C.ar    
   5 C5             2.2640     0.1678     0.5091 C.ar    
   6 C6             2.3951     1.4081    -0.1237 C.ar    
   7 C7             1.3250     1.9327    -0.8548 C.ar    
   8 C8             4.9375    -0.0065    -0.1066 C.3     
   9 C9             4.8270     1.5011     0.0679 C.2     
  10 C10            3.6566     2.1597    -0.0198 C.2     
  11 C11            6.1143    -0.3033    -1.0335 C.3     
  12 C12            7.4572     0.2446    -0.5645 C.3     
  13 N13            7.3172     1.6048    -0.0638 N.pl3   
  14 C14            6.1116     2.1850     0.3422 C.2     
  15 C15            8.6533     3.3084    -1.2005 C.ar    
  16 C16            9.1605     4.5944    -1.2167 C.ar    
  17 C17            9.4473     5.2095    -2.4205 C.ar    
  18 C18            9.2264     4.5374    -3.6107 C.ar    
  19 C19            8.7184     3.2495    -3.5933 C.ar    
  20 C20            8.4373     2.6344    -2.3881 C.ar    
  21 N21           -1.1808    -0.7305    -0.4103 N.pl3   
  22 C22           -1.3162    -2.0486    -0.7618 C.2     
  23 C23           -2.6329    -2.3286    -0.7260 C.2     
  24 N24           -3.2880    -1.2158    -0.3632 N.2     
  25 C25           -2.4288    -0.2531    -0.1663 C.2     
  26 C26           -3.2618    -3.6617    -1.0398 C.3     
  27 N27            6.3232     3.3040     0.9461 N.2     
  28 C28            8.3414     2.6385     0.1129 C.3     
  29 O29            7.7178     3.5682     1.0234 O.3     
  30 C30            9.6095     2.0429     0.7278 C.3     
  31 O31           10.5891     3.0709     0.8886 O.3     
  32 C32            6.1796    -1.7759    -1.4731 C.3     
  33 O33            6.4488    -1.2519    -2.7895 O.3     
  34 C34            5.8132     0.0119    -2.5090 C.3     
  35 C35           -0.7018     2.9992    -2.2854 C.3     
  36 O36           -0.8982     1.7280    -1.6627 O.3     
  37 H37            0.9825    -1.4918     0.9004 H       
  38 H38            3.0888    -0.2397     1.0749 H       
  39 H39            1.4222     2.8900    -1.3453 H       
  40 H40            5.1074    -0.4757     0.8625 H       
  41 H41            4.0182    -0.3924    -0.5471 H       
  42 H42            3.6429     3.2396    -0.0141 H       
  43 H43            7.8458    -0.3917     0.2306 H       
  44 H44            8.1572     0.2406    -1.4000 H       
  45 H45            9.3324     5.1186    -0.2882 H       
  46 H46            9.8432     6.2143    -2.4329 H       
  47 H47            8.5457     2.7243    -4.5210 H       
  48 H48            8.0410     1.6299    -2.3742 H       
  49 H49           -0.5197    -2.7313    -1.0186 H       
  50 H50           -2.6704     0.7559     0.1337 H       
  51 H51           -3.3287    -4.2555    -0.1282 H       
  52 H52           -4.2613    -3.5054    -1.4457 H       
  53 H53           -2.6504    -4.1884    -1.7725 H       
  54 H54            9.3734     1.6108     1.7002 H       
  55 H55           10.0018     1.2667     0.0709 H       
  56 H56           11.4212     2.7644     1.2743 H       
  57 H57            7.0128    -2.3292    -1.0397 H       
  58 H58            5.2286    -2.3026    -1.3940 H       
  59 H59            4.7499     0.0334    -2.7475 H       
  60 H60            6.3564     0.8742    -2.8956 H       
  61 H61           -1.6068     3.2847    -2.8216 H       
  62 H62           -0.4798     3.7465    -1.5236 H       
  63 H63            0.1309     2.9359    -2.9859 H       
@<TRIPOS>BOND
   1    1   18 1
   2    2    3 ar
   3    2    7 ar
   4    2   36 1
   5    3    4 ar
   6    3   21 1
   7    4    5 ar
   8    4   37 1
   9    5    6 ar
  10    5   38 1
  11    6    7 ar
  12    6   10 1
  13    7   39 1
  14    8    9 1
  15    8   11 1
  16    8   40 1
  17    8   41 1
  18    9   10 2
  19    9   14 1
  20   10   42 1
  21   11   12 1
  22   11   32 1
  23   11   34 1
  24   12   13 1
  25   12   43 1
  26   12   44 1
  27   13   14 1
  28   13   28 1
  29   14   27 2
  30   15   16 ar
  31   15   28 1
  32   15   20 ar
  33   16   17 ar
  34   16   45 1
  35   17   18 ar
  36   17   46 1
  37   18   19 ar
  38   19   20 ar
  39   19   47 1
  40   20   48 1
  41   21   22 1
  42   21   25 1
  43   22   23 2
  44   22   49 1
  45   23   24 1
  46   23   26 1
  47   24   25 2
  48   25   50 1
  49   26   51 1
  50   26   52 1
  51   26   53 1
  52   27   29 1
  53   28   29 1
  54   28   30 1
  55   30   31 1
  56   30   54 1
  57   30   55 1
  58   31   56 1
  59   32   33 1
  60   32   57 1
  61   32   58 1
  62   33   34 1
  63   34   59 1
  64   34   60 1
  65   35   36 1
  66   35   61 1
  67   35   62 1
  68   35   63 1

#	End of record

