#	Name: ASD04591028
#	Creating user name:	WinNT
#	Creation time:	15. 06. 2019 20:51

#	Modifying user name:	WinNT
#	Modification time:	15. 06. 2019 20:51

#	Program:	/corina/corina34_cracker 3.40 0067  02.08.2006

@<TRIPOS>MOLECULE
ASD04591028
  58   63    0    0    0
SMALL
NO_CHARGES


@<TRIPOS>ATOM
   1 N1            -0.0171     1.3233    -0.0119 N.ar    
   2 C2             0.0017    -0.0035    -0.0051 C.ar    
   3 N3             1.1299    -0.6948    -0.0122 N.ar    
   4 C4             2.3049    -0.0727    -0.0266 C.ar    
   5 C5             2.3189     1.3368    -0.0341 C.ar    
   6 C6             1.1072     2.0203    -0.0262 C.ar    
   7 N7             3.6047    -0.5198    -0.0374 N.pl3   
   8 C8             4.4836     0.5510    -0.0518 C.ar    
   9 C9             3.7312     1.7394    -0.0504 C.ar    
  10 C10            5.8691     0.6445    -0.0669 C.ar    
  11 N11            6.4613     1.8213    -0.0792 N.ar    
  12 C12            5.7840     2.9559    -0.0782 C.ar    
  13 C13            4.4053     2.9599    -0.0642 C.ar    
  14 C14            3.9869    -1.8688    -0.0338 C.ar    
  15 N15           -1.2019    -0.6888     0.0103 N.pl3   
  16 C16           -2.4018     0.0119     0.1313 C.ar    
  17 N17           -2.3783     1.3196     0.3319 N.ar    
  18 C18           -3.4884     2.0228     0.4522 C.ar    
  19 C19           -4.7290     1.4086     0.3717 C.ar    
  20 C20           -4.7935     0.0320     0.1610 C.ar    
  21 C21           -3.6093    -0.6710     0.0340 C.ar    
  22 N22           -5.9022     2.1614     0.5008 N.3     
  23 C23           -5.5952     3.5823     0.7161 C.3     
  24 C24           -6.8998     4.3806     0.7725 C.3     
  25 N25           -7.7447     3.8574     1.8551 N.3     
  26 C26           -8.0518     2.4365     1.6398 C.3     
  27 C27           -6.7472     1.6383     1.5834 C.3     
  28 C28            3.6768    -2.6814    -1.1160 C.ar    
  29 C29            4.0539    -4.0097    -1.1120 C.ar    
  30 C30            4.7425    -4.5324    -0.0271 C.ar    
  31 C31            5.0523    -3.7211     1.0547 C.ar    
  32 C32            4.6807    -2.3911     1.0495 C.ar    
  33 O33            5.1136    -5.8404    -0.0238 O.3     
  34 C34            5.8198    -6.3116     1.1257 C.3     
  35 H35            1.0848     3.1001    -0.0319 H       
  36 H36            6.4663    -0.2554    -0.0682 H       
  37 H37            6.3185     3.8943    -0.0883 H       
  38 H38            3.8578     3.8908    -0.0632 H       
  39 H39           -1.2103    -1.6560    -0.0630 H       
  40 H40           -3.4300     3.0888     0.6157 H       
  41 H41           -5.7458    -0.4729     0.0940 H       
  42 H42           -3.6221    -1.7383    -0.1303 H       
  43 H43           -5.0562     3.6995     1.6563 H       
  44 H44           -4.9792     3.9497    -0.1048 H       
  45 H45           -6.6758     5.4305     0.9610 H       
  46 H46           -7.4256     4.2855    -0.1776 H       
  47 H47           -7.3105     4.0013     2.7544 H       
  48 H48           -8.6677     2.0692     2.4606 H       
  49 H49           -8.5907     2.3193     0.6996 H       
  50 H50           -6.9711     0.5883     1.3949 H       
  51 H51           -6.2213     1.7334     2.5334 H       
  52 H52            3.1404    -2.2747    -1.9606 H       
  53 H53            3.8124    -4.6420    -1.9536 H       
  54 H54            5.5877    -4.1287     1.8994 H       
  55 H55            4.9222    -1.7595     1.8916 H       
  56 H56            6.7435    -5.7448     1.2421 H       
  57 H57            5.1992    -6.1810     2.0122 H       
  58 H58            6.0554    -7.3683     0.9996 H       
@<TRIPOS>BOND
   1    1    2 ar
   2    1    6 ar
   3    2    3 ar
   4    2   15 1
   5    3    4 ar
   6    4    5 ar
   7    4    7 1
   8    5    6 ar
   9    5    9 1
  10    6   35 1
  11    7    8 1
  12    7   14 1
  13    8    9 ar
  14    8   10 ar
  15    9   13 ar
  16   10   11 ar
  17   10   36 1
  18   11   12 ar
  19   12   13 ar
  20   12   37 1
  21   13   38 1
  22   14   28 ar
  23   14   32 ar
  24   15   16 1
  25   15   39 1
  26   16   17 ar
  27   16   21 ar
  28   17   18 ar
  29   18   19 ar
  30   18   40 1
  31   19   20 ar
  32   19   22 1
  33   20   21 ar
  34   20   41 1
  35   21   42 1
  36   22   23 1
  37   22   27 1
  38   23   24 1
  39   23   43 1
  40   23   44 1
  41   24   25 1
  42   24   45 1
  43   24   46 1
  44   25   26 1
  45   25   47 1
  46   26   27 1
  47   26   48 1
  48   26   49 1
  49   27   50 1
  50   27   51 1
  51   28   29 ar
  52   28   52 1
  53   29   30 ar
  54   29   53 1
  55   30   31 ar
  56   30   33 1
  57   31   32 ar
  58   31   54 1
  59   32   55 1
  60   33   34 1
  61   34   56 1
  62   34   57 1
  63   34   58 1

#	End of record

