#	Name: ASD01911109
#	Creating user name:	WinNT
#	Creation time:	15. 06. 2019 19:57

#	Modifying user name:	WinNT
#	Modification time:	15. 06. 2019 19:57

#	Program:	/corina/corina34_cracker 3.40 0067  02.08.2006

@<TRIPOS>MOLECULE
ASD01911109
  48   51    0    0    0
SMALL
NO_CHARGES


@<TRIPOS>ATOM
   1 C1            -0.0032     0.9619    -0.0899 C.2     
   2 O2             0.0523    -0.2523    -0.1000 O.2     
   3 N3             1.1287     1.6889    -0.1712 N.am    
   4 C4             2.4431     1.0325    -0.1522 C.3     
   5 C5             3.2956     1.6677     0.9508 C.3     
   6 C6             3.3524     3.1821     0.7377 C.3     
   7 C7             1.9397     3.7644     0.8234 C.3     
   8 C8             1.0717     3.1525    -0.2867 C.3     
   9 O9             5.5387     1.1695    -0.1320 O.3     
  10 N10            6.5788     0.6129     0.1500 N.2     
  11 C11            6.5185     0.1346     1.3624 C.2     
  12 N12            5.3013     0.4441     1.8549 N.2     
  13 C13            4.6904     1.0997     0.8984 C.2     
  14 O14            7.4974    -0.5471     2.0075 O.3     
  15 C15            8.6548    -0.7886     1.3373 C.ar    
  16 C16            8.8788    -0.1978     0.1021 C.ar    
  17 C17           10.0560    -0.4450    -0.5771 C.ar    
  18 C18           11.0104    -1.2808    -0.0273 C.ar    
  19 C19           10.7894    -1.8713     1.2033 C.ar    
  20 C20            9.6167    -1.6221     1.8896 C.ar    
  21 C21           -1.3129     1.6412     0.0054 C.ar    
  22 C22           -2.1549     1.3914     1.0905 C.ar    
  23 C23           -3.3752     2.0288     1.1736 C.ar    
  24 C24           -3.7657     2.9141     0.1842 C.ar    
  25 C25           -2.9360     3.1661    -0.8937 C.ar    
  26 C26           -1.7102     2.5395    -0.9860 C.ar    
  27 C27           -1.7317     0.4269     2.1683 C.3     
  28 H28            2.3174    -0.0312     0.0500 H       
  29 H29            2.9331     1.1678    -1.1164 H       
  30 H30            2.8513     1.4535     1.9228 H       
  31 H31            3.9786     3.6338     1.5070 H       
  32 H32            3.7740     3.3950    -0.2447 H       
  33 H33            1.5082     3.5304     1.7966 H       
  34 H34            1.9835     4.8459     0.6948 H       
  35 H35            1.4522     3.4572    -1.2616 H       
  36 H36            0.0409     3.4881    -0.1733 H       
  37 H37            8.1334     0.4546    -0.3282 H       
  38 H38           10.2309     0.0147    -1.5386 H       
  39 H39           11.9300    -1.4731    -0.5600 H       
  40 H40           11.5361    -2.5243     1.6303 H       
  41 H41            9.4466    -2.0797     2.8530 H       
  42 H42           -4.0276     1.8364     2.0125 H       
  43 H43           -4.7226     3.4101     0.2537 H       
  44 H44           -3.2467     3.8581    -1.6625 H       
  45 H45           -1.0616     2.7403    -1.8258 H       
  46 H46           -1.2422     0.9742     2.9739 H       
  47 H47           -2.6089    -0.0882     2.5598 H       
  48 H48           -1.0379    -0.3029     1.7509 H       
@<TRIPOS>BOND
   1    1    2 2
   2    1    3 am
   3    1   21 1
   4    3    4 1
   5    3    8 1
   6    4    5 1
   7    4   28 1
   8    4   29 1
   9    5    6 1
  10    5   13 1
  11    5   30 1
  12    6    7 1
  13    6   31 1
  14    6   32 1
  15    7    8 1
  16    7   33 1
  17    7   34 1
  18    8   35 1
  19    8   36 1
  20    9   10 1
  21    9   13 1
  22   10   11 2
  23   11   12 1
  24   11   14 1
  25   12   13 2
  26   14   15 1
  27   15   16 ar
  28   15   20 ar
  29   16   17 ar
  30   16   37 1
  31   17   18 ar
  32   17   38 1
  33   18   19 ar
  34   18   39 1
  35   19   20 ar
  36   19   40 1
  37   20   41 1
  38   21   22 ar
  39   21   26 ar
  40   22   23 ar
  41   22   27 1
  42   23   24 ar
  43   23   42 1
  44   24   25 ar
  45   24   43 1
  46   25   26 ar
  47   25   44 1
  48   26   45 1
  49   27   46 1
  50   27   47 1
  51   27   48 1

#	End of record

