#	Name: ASD05430424
#	Creating user name:	WinNT
#	Creation time:	15. 06. 2019 21:00

#	Modifying user name:	WinNT
#	Modification time:	15. 06. 2019 21:00

#	Program:	/corina/corina34_cracker 3.40 0067  02.08.2006

@<TRIPOS>MOLECULE
ASD05430424
  63   67    0    0    0
SMALL
NO_CHARGES


@<TRIPOS>ATOM
   1 C1            -0.0227     1.3681     0.1677 C.ar    
   2 C2            -0.0157    -0.0184     0.3225 C.ar    
   3 C3            -1.2133    -0.7201     0.3870 C.ar    
   4 C4            -2.4135    -0.0506     0.2985 C.ar    
   5 C5            -2.4289     1.3409     0.1436 C.ar    
   6 C6            -1.2224     2.0479     0.0839 C.ar    
   7 C7            -4.8681     1.3633    -0.0465 C.2     
   8 C8            -3.7079     2.0574     0.0490 C.2     
   9 O9             1.1512     2.0509     0.1050 O.3     
  10 C10            1.5507    -1.6234     1.3687 C.2     
  11 N11            1.2018    -0.7049     0.4126 N.pl3   
  12 C12            2.8006    -2.0323     1.0791 C.2     
  13 N13            3.2085    -1.3847    -0.0225 N.2     
  14 C14            2.2599    -0.5868    -0.4312 C.2     
  15 C15            3.6027    -3.0426     1.8581 C.3     
  16 O16           -4.8910     0.0019    -0.2151 O.3     
  17 C17           -5.7669    -0.4604    -1.2457 C.3     
  18 C18           -7.1909     0.0244    -1.0118 C.3     
  19 N19           -7.2404     1.4222    -0.6060 N.pl3   
  20 C20           -6.1807     2.0216     0.0305 C.2     
  21 C21           -8.4349     2.2332    -0.8897 C.3     
  22 C22           -8.7761     3.0398     0.3690 C.3     
  23 C23           -7.5243     3.7036     0.8830 C.2     
  24 N24           -6.3346     3.1469     0.7066 N.2     
  25 O25           -7.6070     4.7638     1.4720 O.2     
  26 C26            1.0694     3.4686    -0.0540 C.3     
  27 C27           -8.1520     3.1721    -2.0340 C.ar    
  28 C28           -9.1192     3.4010    -2.9949 C.ar    
  29 C29           -8.8610     4.2622    -4.0445 C.ar    
  30 C30           -7.6331     4.8957    -4.1335 C.ar    
  31 C31           -6.6652     4.6656    -3.1706 C.ar    
  32 C32           -6.9275     3.8081    -2.1190 C.ar    
  33 F33           -7.3795     5.7374    -5.1594 F       
  34 C34           -5.2736     0.0632    -2.5961 C.3     
  35 C35           -9.8174     4.1070     0.0261 C.3     
  36 O36          -10.2204     4.7804     1.2204 O.3     
  37 H37           -1.2028    -1.7935     0.5065 H       
  38 H38           -3.3427    -0.5988     0.3483 H       
  39 H39           -1.2292     3.1213    -0.0351 H       
  40 H40           -3.7237     3.1373     0.0554 H       
  41 H41            0.9418    -1.9524     2.1978 H       
  42 H42            2.3081     0.0591    -1.2955 H       
  43 H43            3.4139    -4.0402     1.4616 H       
  44 H44            4.6640    -2.8109     1.7687 H       
  45 H45            3.3103    -3.0075     2.9076 H       
  46 H46           -5.7579    -1.5502    -1.2607 H       
  47 H47           -7.7609    -0.0964    -1.9331 H       
  48 H48           -7.6483    -0.5859    -0.2331 H       
  49 H49           -9.2698     1.5810    -1.1461 H       
  50 H50           -9.1746     2.3721     1.1329 H       
  51 H51            2.0745     3.8889    -0.0894 H       
  52 H52            0.5458     3.7006    -0.9815 H       
  53 H53            0.5255     3.8979     0.7874 H       
  54 H54          -10.0768     2.9065    -2.9254 H       
  55 H55           -9.6167     4.4406    -4.7952 H       
  56 H56           -5.7070     5.1593    -3.2390 H       
  57 H57           -6.1727     3.6285    -1.3678 H       
  58 H58           -4.2642    -0.3041    -2.7814 H       
  59 H59           -5.9382    -0.2865    -3.3861 H       
  60 H60           -5.2670     1.1531    -2.5828 H       
  61 H61           -9.3847     4.8270    -0.6685 H       
  62 H62          -10.6846     3.6338    -0.4344 H       
  63 H63          -10.8810     5.4721     1.0781 H       
@<TRIPOS>BOND
   1    1    2 ar
   2    1    9 1
   3    1    6 ar
   4    2    3 ar
   5    2   11 1
   6    3    4 ar
   7    3   37 1
   8    4    5 ar
   9    4   38 1
  10    5    6 ar
  11    5    8 1
  12    6   39 1
  13    7    8 2
  14    7   16 1
  15    7   20 1
  16    8   40 1
  17    9   26 1
  18   10   11 1
  19   10   12 2
  20   10   41 1
  21   11   14 1
  22   12   13 1
  23   12   15 1
  24   13   14 2
  25   14   42 1
  26   15   43 1
  27   15   44 1
  28   15   45 1
  29   16   17 1
  30   17   18 1
  31   17   34 1
  32   17   46 1
  33   18   19 1
  34   18   47 1
  35   18   48 1
  36   19   20 1
  37   19   21 1
  38   20   24 2
  39   21   22 1
  40   21   27 1
  41   21   49 1
  42   22   23 1
  43   22   35 1
  44   22   50 1
  45   23   24 1
  46   23   25 2
  47   26   51 1
  48   26   52 1
  49   26   53 1
  50   27   28 ar
  51   27   32 ar
  52   28   29 ar
  53   28   54 1
  54   29   30 ar
  55   29   55 1
  56   30   31 ar
  57   30   33 1
  58   31   32 ar
  59   31   56 1
  60   32   57 1
  61   34   58 1
  62   34   59 1
  63   34   60 1
  64   35   36 1
  65   35   61 1
  66   35   62 1
  67   36   63 1

#	End of record

