#	Name: ASD04880910
#	Creating user name:	WinNT
#	Creation time:	15. 06. 2019 20:53

#	Modifying user name:	WinNT
#	Modification time:	15. 06. 2019 20:53

#	Program:	/corina/corina34_cracker 3.40 0067  02.08.2006

@<TRIPOS>MOLECULE
ASD04880910
  78   82    0    0    0
SMALL
NO_CHARGES


@<TRIPOS>ATOM
   1 C1            -0.0848     1.9638    -0.2130 C.2     
   2 C2            -0.2131     0.5050    -0.1387 C.2     
   3 O3            -1.3156    -0.0106    -0.1546 O.2     
   4 N4             0.8897    -0.2649    -0.0528 N.am    
   5 C5             2.1586     0.3285    -0.0344 C.ar    
   6 C6             2.8771     0.4807    -1.2241 C.ar    
   7 C7             4.1358     1.0696    -1.2075 C.ar    
   8 C8             4.6801     1.5055    -0.0194 C.ar    
   9 C9             3.9674     1.3565     1.1733 C.ar    
  10 C10            2.6988     0.7691     1.1586 C.ar    
  11 C11            4.5508     1.8229     2.4455 C.2     
  12 O12            3.9299     1.6929     3.4829 O.2     
  13 N13            5.7719     2.3932     2.4580 N.am    
  14 C14            6.3511     2.8564     3.7214 C.3     
  15 C15            7.7119     3.4500     3.4623 C.ar    
  16 N16            2.3309     0.0411    -2.4272 N.3     
  17 C17            3.1258    -1.0560    -2.9967 C.3     
  18 C18            2.4503    -1.5624    -4.2733 C.3     
  19 N19            2.3250    -0.4546    -5.2307 N.3     
  20 C20            1.5301     0.6425    -4.6612 C.3     
  21 C21            2.2056     1.1489    -3.3846 C.3     
  22 C22            1.7772    -0.8955    -6.4376 C.ar    
  23 C23            0.5185    -0.4589    -6.8315 C.ar    
  24 C24           -0.0199    -0.8963    -8.0254 C.ar    
  25 C25            0.6922    -1.7686    -8.8286 C.ar    
  26 C26            1.9451    -2.2051    -8.4395 C.ar    
  27 C27            2.4920    -1.7669    -7.2492 C.ar    
  28 O28            1.0711     2.6594    -0.2053 O.3     
  29 C29            0.8024     3.9690    -0.2871 C.2     
  30 C30           -0.5372     4.1350    -0.3490 C.2     
  31 C31           -1.1143     2.8560    -0.3082 C.2     
  32 C32            0.7616    -1.7224     0.0215 C.3     
  33 C33            3.8603    -2.2384    -6.8289 C.3     
  34 C34            7.8338     4.7977     3.1790 C.ar    
  35 C35            9.0798     5.3470     2.9406 C.ar    
  36 C36           10.2100     4.5465     2.9854 C.ar    
  37 C37           10.0872     3.1901     3.2707 C.ar    
  38 C38            8.8359     2.6469     3.5142 C.ar    
  39 O39           11.1934     2.4002     3.3153 O.3     
  40 C40           10.9916     1.0174     3.6139 C.3     
  41 O41           11.4364     5.0853     2.7508 O.3     
  42 C42           11.4863     6.4843     2.4640 C.3     
  43 H43            4.6886     1.1855    -2.1280 H       
  44 H44            5.6586     1.9625    -0.0097 H       
  45 H45            2.1439     0.6563     2.0783 H       
  46 H46            6.2672     2.4970     1.6305 H       
  47 H47            5.7026     3.6132     4.1626 H       
  48 H48            6.4465     2.0148     4.4075 H       
  49 H49            4.1267    -0.6950    -3.2335 H       
  50 H50            3.1936    -1.8691    -2.2741 H       
  51 H51            3.0534    -2.3567    -4.7132 H       
  52 H52            1.4599    -1.9484    -4.0322 H       
  53 H53            1.4623     1.4556    -5.3839 H       
  54 H54            0.5293     0.2815    -4.4244 H       
  55 H55            1.6026     1.9433    -2.9447 H       
  56 H56            3.1960     1.5349    -3.6258 H       
  57 H57           -0.0384     0.2217    -6.2045 H       
  58 H58           -0.9983    -0.5573    -8.3323 H       
  59 H59            0.2685    -2.1098    -9.7615 H       
  60 H60            2.4985    -2.8862    -9.0689 H       
  61 H61            1.5356     4.7618    -0.3010 H       
  62 H62           -1.0646     5.0747    -0.4205 H       
  63 H63           -2.1682     2.6230    -0.3427 H       
  64 H64           -0.2927    -1.9917     0.0855 H       
  65 H65            1.1977    -2.1714    -0.8708 H       
  66 H66            1.2844    -2.0886     0.9051 H       
  67 H67            3.7719    -3.1917    -6.3079 H       
  68 H68            4.4884    -2.3631    -7.7109 H       
  69 H69            4.3101    -1.5012    -6.1638 H       
  70 H70            6.9537     5.4226     3.1434 H       
  71 H71            9.1723     6.4000     2.7191 H       
  72 H72            8.7383     1.5954     3.7405 H       
  73 H73           10.5237     0.9219     4.5938 H       
  74 H74           10.3447     0.5730     2.8576 H       
  75 H75           11.9523     0.5027     3.6183 H       
  76 H76           12.5209     6.7843     2.2971 H       
  77 H77           10.8988     6.6931     1.5700 H       
  78 H78           11.0774     7.0426     3.3061 H       
@<TRIPOS>BOND
   1    1    2 1
   2    1   28 1
   3    1   31 2
   4    2    3 2
   5    2    4 am
   6    4    5 1
   7    4   32 1
   8    5    6 ar
   9    5   10 ar
  10    6    7 ar
  11    6   16 1
  12    7    8 ar
  13    7   43 1
  14    8    9 ar
  15    8   44 1
  16    9   10 ar
  17    9   11 1
  18   10   45 1
  19   11   12 2
  20   11   13 am
  21   13   14 1
  22   13   46 1
  23   14   15 1
  24   14   47 1
  25   14   48 1
  26   15   34 ar
  27   15   38 ar
  28   16   17 1
  29   16   21 1
  30   17   18 1
  31   17   49 1
  32   17   50 1
  33   18   19 1
  34   18   51 1
  35   18   52 1
  36   19   20 1
  37   19   22 1
  38   20   21 1
  39   20   53 1
  40   20   54 1
  41   21   55 1
  42   21   56 1
  43   22   23 ar
  44   22   27 ar
  45   23   24 ar
  46   23   57 1
  47   24   25 ar
  48   24   58 1
  49   25   26 ar
  50   25   59 1
  51   26   27 ar
  52   26   60 1
  53   27   33 1
  54   28   29 1
  55   29   30 2
  56   29   61 1
  57   30   31 1
  58   30   62 1
  59   31   63 1
  60   32   64 1
  61   32   65 1
  62   32   66 1
  63   33   67 1
  64   33   68 1
  65   33   69 1
  66   34   35 ar
  67   34   70 1
  68   35   36 ar
  69   35   71 1
  70   36   37 ar
  71   36   41 1
  72   37   38 ar
  73   37   39 1
  74   38   72 1
  75   39   40 1
  76   40   73 1
  77   40   74 1
  78   40   75 1
  79   41   42 1
  80   42   76 1
  81   42   77 1
  82   42   78 1

#	End of record

