#	Name: ASD01913856
#	Creating user name:	WinNT
#	Creation time:	15. 06. 2019 20:02

#	Modifying user name:	WinNT
#	Modification time:	15. 06. 2019 20:02

#	Program:	/corina/corina34_cracker 3.40 0067  02.08.2006

@<TRIPOS>MOLECULE
ASD01913856
  39   42    0    0    0
SMALL
NO_CHARGES


@<TRIPOS>ATOM
   1 C1            -0.0227     1.4277    -0.0313 C.ar    
   2 C2            -0.0018    -0.0041    -0.0269 C.1     
   3 C3             0.0154    -1.1780    -0.0233 C.1     
   4 C4             0.0364    -2.6098    -0.0189 C.ar    
   5 C5            -1.1338    -3.3383     0.2421 C.ar    
   6 C6             0.1561    -5.3344    -0.0280 C.ar    
   7 N7             1.2427    -4.6189    -0.2766 N.ar    
   8 C8             1.2208    -3.3023    -0.2801 C.ar    
   9 C9            -1.0630    -4.7170     0.2353 C.ar    
  10 C10            1.1471     2.1463    -0.2922 C.ar    
  11 C11            1.1191     3.5252    -0.2952 C.ar    
  12 C12           -1.2270     3.4924     0.2133 C.ar    
  13 C13           -1.2144     2.1133     0.2196 C.ar    
  14 C14           -0.0635     4.1972    -0.0407 C.ar    
  15 N15            0.2332    -6.7251    -0.0369 N.am    
  16 C16           -0.8344    -7.5446    -0.0319 C.2     
  17 C17           -0.3819    -8.9917    -0.0367 C.3     
  18 C18            1.1010    -8.9126     0.3397 C.3     
  19 C19            1.4921    -7.4862    -0.0594 C.3     
  20 C20            1.4710    -9.3591     1.7501 C.3     
  21 O21            2.6278    -9.9546     1.1216 O.3     
  22 C22            1.9962   -10.0344    -0.1755 C.3     
  23 O23           -1.9907    -7.1786    -0.0246 O.2     
  24 H24           -2.0668    -2.8331     0.4438 H       
  25 H25            2.1272    -2.7528    -0.4873 H       
  26 H26           -1.9439    -5.3098     0.4325 H       
  27 H27            2.0708     1.6231    -0.4907 H       
  28 H28            2.0225     4.0818    -0.4964 H       
  29 H29           -2.1472     4.0235     0.4067 H       
  30 H30           -2.1232     1.5645     0.4177 H       
  31 H31           -0.0794     5.2771    -0.0444 H       
  32 H32           -0.9348    -9.5682     0.7050 H       
  33 H33           -0.5023    -9.4271    -1.0287 H       
  34 H34            1.9277    -7.4787    -1.0586 H       
  35 H35            2.1939    -7.0699     0.6633 H       
  36 H36            1.7085    -8.5378     2.4262 H       
  37 H37            0.7795   -10.0834     2.1806 H       
  38 H38            1.4710   -10.9725    -0.3549 H       
  39 H39            2.6434    -9.7399    -1.0016 H       
@<TRIPOS>BOND
   1    1    2 1
   2    1   10 ar
   3    1   13 ar
   4    2    3 3
   5    3    4 1
   6    4    5 ar
   7    4    8 ar
   8    5    9 ar
   9    5   24 1
  10    6    7 ar
  11    6   15 1
  12    6    9 ar
  13    7    8 ar
  14    8   25 1
  15    9   26 1
  16   10   11 ar
  17   10   27 1
  18   11   14 ar
  19   11   28 1
  20   12   13 ar
  21   12   14 ar
  22   12   29 1
  23   13   30 1
  24   14   31 1
  25   15   16 am
  26   15   19 1
  27   16   17 1
  28   16   23 2
  29   17   18 1
  30   17   32 1
  31   17   33 1
  32   18   19 1
  33   18   20 1
  34   18   22 1
  35   19   34 1
  36   19   35 1
  37   20   21 1
  38   20   36 1
  39   20   37 1
  40   21   22 1
  41   22   38 1
  42   22   39 1

#	End of record

