#	Name: ASD01230777
#	Creating user name:	WinNT
#	Creation time:	15. 06. 2019 19:15

#	Modifying user name:	WinNT
#	Modification time:	15. 06. 2019 19:15

#	Program:	/corina/corina34_cracker 3.40 0067  02.08.2006

@<TRIPOS>MOLECULE
ASD01230777
  40   43    0    0    0
SMALL
NO_CHARGES


@<TRIPOS>ATOM
   1 C1            -0.0166     1.3720     0.0096 C.2     
   2 C2             0.0021    -0.0041     0.0020 C.2     
   3 C3            -1.2153    -0.7011     0.0116 C.2     
   4 C4            -2.3850    -0.0407     0.0107 C.2     
   5 N5            -2.4617     1.3309    -0.0008 N.pl3   
   6 C6            -1.3167     2.0745     0.0319 C.2     
   7 C7            -3.8087     1.9050    -0.0548 C.3     
   8 C8            -3.8785     3.1904     0.7748 C.3     
   9 S9            -2.6202     4.3262     0.1105 S.o2    
  10 N10           -1.2606     3.3839     0.0825 N.am    
  11 C11            1.2518     2.1401     0.0016 C.2     
  12 O12           -2.8818     4.6267    -1.2535 O.2     
  13 O13           -2.3208     5.3512     1.0480 O.2     
  14 C14            1.7054     2.9884    -1.0282 C.2     
  15 N15            2.8600     3.4830    -0.6681 N.2     
  16 N16            3.1879     2.9755     0.5948 N.pl3   
  17 C17            2.1902     2.1589     0.9933 C.2     
  18 C18            4.4020     3.2824     1.3552 C.3     
  19 C19            5.6133     2.9772     0.5122 C.ar    
  20 C20            6.1535     3.9555    -0.3014 C.ar    
  21 C21            6.1875     1.7206     0.5568 C.ar    
  22 C22            7.2987     1.4406    -0.2164 C.ar    
  23 C23            7.8352     2.4170    -1.0347 C.ar    
  24 C24            7.2645     3.6755    -1.0747 C.ar    
  25 H25            0.9400    -0.5394    -0.0115 H       
  26 H26           -1.2121    -1.7811     0.0194 H       
  27 H27           -3.3021    -0.6109     0.0191 H       
  28 H28           -4.0619     2.1313    -1.0905 H       
  29 H29           -4.5235     1.1829     0.3400 H       
  30 H30           -4.8682     3.6381     0.6836 H       
  31 H31           -3.6646     2.9697     1.8206 H       
  32 H32            1.1888     3.1937    -1.9542 H       
  33 H33            2.1453     1.6138     1.9245 H       
  34 H34            4.4041     4.3384     1.6255 H       
  35 H35            4.4269     2.6756     2.2603 H       
  36 H36            5.7072     4.9385    -0.3332 H       
  37 H37            5.7684     0.9577     1.1961 H       
  38 H38            7.7478     0.4590    -0.1810 H       
  39 H39            8.7035     2.1984    -1.6385 H       
  40 H40            7.6838     4.4384    -1.7140 H       
@<TRIPOS>BOND
   1    1    2 2
   2    1   11 1
   3    1    6 1
   4    2    3 1
   5    2   25 1
   6    3    4 2
   7    3   26 1
   8    4    5 1
   9    4   27 1
  10    5    6 1
  11    5    7 1
  12    6   10 2
  13    7    8 1
  14    7   28 1
  15    7   29 1
  16    8    9 1
  17    8   30 1
  18    8   31 1
  19    9   10 am
  20    9   12 2
  21    9   13 2
  22   11   14 1
  23   11   17 2
  24   14   15 2
  25   14   32 1
  26   15   16 1
  27   16   17 1
  28   16   18 1
  29   17   33 1
  30   18   19 1
  31   18   34 1
  32   18   35 1
  33   19   20 ar
  34   19   21 ar
  35   20   24 ar
  36   20   36 1
  37   21   22 ar
  38   21   37 1
  39   22   23 ar
  40   22   38 1
  41   23   24 ar
  42   23   39 1
  43   24   40 1

#	End of record

