#	Name: ASD01100023
#	Creating user name:	WinNT
#	Creation time:	15. 06. 2019 18:58

#	Modifying user name:	WinNT
#	Modification time:	15. 06. 2019 18:58

#	Program:	/corina/corina34_cracker 3.40 0067  02.08.2006

@<TRIPOS>MOLECULE
ASD01100023
  36   37    0    0    0
SMALL
NO_CHARGES


@<TRIPOS>ATOM
   1 C1             0.1625     1.2942    -0.9229 C.ar    
   2 C2             0.2406    -0.0854    -0.9932 C.ar    
   3 C3             1.4417    -0.7235    -0.7396 C.ar    
   4 C4             2.5627     0.0173    -0.4161 C.ar    
   5 C5             2.4841     1.3957    -0.3460 C.ar    
   6 C6             1.2843     2.0339    -0.5993 C.ar    
   7 C7             3.7067     2.2029     0.0073 C.3     
   8 C8             3.4375     3.0048     1.2822 C.3     
   9 C9             3.2219     2.0439     2.4531 C.3     
  10 C10            4.6357     3.9090     1.5784 C.3     
  11 Cl11          -1.1681    -1.0152    -1.3991 Cl      
  12 C12            4.0284     3.1476    -1.1219 C.2     
  13 N13            5.1807     3.8465    -1.1082 N.am    
  14 O14            3.2505     3.2790    -2.0428 O.2     
  15 C15            5.4408     4.7769    -2.1068 C.ar    
  16 N16            6.5779     5.4547    -2.0780 N.ar    
  17 C17            6.8568     6.3477    -3.0131 C.ar    
  18 C18            5.9419     6.5692    -4.0305 C.ar    
  19 C19            4.7618     5.8421    -4.0298 C.ar    
  20 N20            4.5481     4.9604    -3.0672 N.ar    
  21 H21           -0.7737     1.7932    -1.1251 H       
  22 H22            1.5031    -1.8004    -0.7941 H       
  23 H23            3.5003    -0.4807    -0.2178 H       
  24 H24            1.2234     3.1108    -0.5443 H       
  25 H25            4.5500     1.5321     0.1712 H       
  26 H26            2.5458     3.6165     1.1452 H       
  27 H27            4.1136     1.4322     2.5901 H       
  28 H28            3.0302     2.6152     3.3614 H       
  29 H29            2.3683     1.3997     2.2421 H       
  30 H30            4.8523     4.5232     0.7044 H       
  31 H31            4.4038     4.5531     2.4267 H       
  32 H32            5.5045     3.2949     1.8153 H       
  33 H33            5.8285     3.7000    -0.4012 H       
  34 H34            7.7858     6.8977    -2.9839 H       
  35 H35            6.1440     7.2926    -4.8066 H       
  36 H36            4.0277     5.9907    -4.8078 H       
@<TRIPOS>BOND
   1    1    2 ar
   2    1    6 ar
   3    1   21 1
   4    2    3 ar
   5    2   11 1
   6    3    4 ar
   7    3   22 1
   8    4    5 ar
   9    4   23 1
  10    5    6 ar
  11    5    7 1
  12    6   24 1
  13    7    8 1
  14    7   12 1
  15    7   25 1
  16    8    9 1
  17    8   10 1
  18    8   26 1
  19    9   27 1
  20    9   28 1
  21    9   29 1
  22   10   30 1
  23   10   31 1
  24   10   32 1
  25   12   13 am
  26   12   14 2
  27   13   15 1
  28   13   33 1
  29   15   16 ar
  30   15   20 ar
  31   16   17 ar
  32   17   18 ar
  33   17   34 1
  34   18   19 ar
  35   18   35 1
  36   19   20 ar
  37   19   36 1

#	End of record

