#	Name: ASD01350002
#	Creating user name:	WinNT
#	Creation time:	15. 06. 2019 19:16

#	Modifying user name:	WinNT
#	Modification time:	15. 06. 2019 19:16

#	Program:	/corina/corina34_cracker 3.40 0067  02.08.2006

@<TRIPOS>MOLECULE
ASD01350002
  64   67    0    0    0
SMALL
NO_CHARGES


@<TRIPOS>ATOM
   1 C1             0.4859     0.7170    -0.7532 C.3     
   2 C2             0.3307    -0.8047    -0.7891 C.3     
   3 C3             1.8344     1.1066    -1.3621 C.3     
   4 C4             1.8508     0.7386    -2.8234 C.ar    
   5 C5             2.0412     2.5922    -1.2159 C.ar    
   6 H6             2.6336     0.5759    -0.8447 H       
   7 C7            -1.0178    -1.1943    -0.1802 C.3     
   8 N8            -1.1668    -2.6553    -0.2147 N.3     
   9 C9            -2.3324    -3.0840     0.5689 C.3     
  10 C10           -2.3726    -4.6126     0.6312 C.3     
  11 C11           -2.4554    -5.1745    -0.7907 C.3     
  12 C12           -1.2555    -4.6739    -1.5996 C.3     
  13 C13           -1.2477    -3.1435    -1.5973 C.3     
  14 C14            1.0673     3.4717    -1.6507 C.ar    
  15 C15            1.2570     4.8343    -1.5166 C.ar    
  16 C16            2.4203     5.3175    -0.9473 C.ar    
  17 C17            3.3938     4.4380    -0.5117 C.ar    
  18 C18            3.2022     3.0752    -0.6418 C.ar    
  19 C19            2.8850    -0.0246    -3.3323 C.ar    
  20 C20            2.9001    -0.3622    -4.6727 C.ar    
  21 C21            1.8808     0.0630    -5.5041 C.ar    
  22 C22            0.8462     0.8255    -4.9950 C.ar    
  23 C23            0.8289     1.1594    -3.6537 C.ar    
  24 C24           -2.4349    -6.6805    -0.7391 C.ar    
  25 C25           -3.7513    -4.7019    -1.4527 C.3     
  26 C26           -2.5451    -7.4134    -1.9060 C.ar    
  27 C27           -2.5263    -8.7946    -1.8592 C.ar    
  28 C28           -2.3972    -9.4437    -0.6443 C.ar    
  29 C29           -2.2870    -8.7096     0.5233 C.ar    
  30 C30           -2.3002    -7.3284     0.4747 C.ar    
  31 Cl31          -2.3742   -11.1785    -0.5847 Cl      
  32 N32           -4.9021    -5.2590    -0.7292 N.3     
  33 H33           -0.3184     1.1779    -1.3266 H       
  34 H34            0.4401     1.0626     0.2795 H       
  35 H35            0.3764    -1.1503    -1.8219 H       
  36 H36            1.1350    -1.2656    -0.2157 H       
  37 H37           -1.0636    -0.8486     0.8525 H       
  38 H38           -1.8221    -0.7334    -0.7536 H       
  39 H39           -2.2591    -2.6811     1.5790 H       
  40 H40           -3.2431    -2.7157     0.0964 H       
  41 H41           -1.4686    -4.9809     1.1161 H       
  42 H42           -3.2466    -4.9307     1.1997 H       
  43 H43           -0.3339    -5.0432    -1.1498 H       
  44 H44           -1.3313    -5.0359    -2.6249 H       
  45 H45           -2.1634    -2.7750    -2.0596 H       
  46 H46           -0.3865    -2.7839    -2.1604 H       
  47 H47            0.1585     3.0942    -2.0955 H       
  48 H48            0.4965     5.5215    -1.8570 H       
  49 H49            2.5689     6.3822    -0.8432 H       
  50 H50            4.3028     4.8155    -0.0672 H       
  51 H51            3.9627     2.3880    -0.3014 H       
  52 H52            3.6813    -0.3569    -2.6828 H       
  53 H53            3.7084    -0.9579    -5.0705 H       
  54 H54            1.8930    -0.2001    -6.5515 H       
  55 H55            0.0501     1.1580    -5.6446 H       
  56 H56            0.0206     1.7551    -3.2559 H       
  57 H57           -3.7972    -3.6132    -1.4253 H       
  58 H58           -3.7747    -5.0406    -2.4885 H       
  59 H59           -2.6462    -6.9066    -2.8543 H       
  60 H60           -2.6128    -9.3671    -2.7709 H       
  61 H61           -2.1862    -9.2158     1.4720 H       
  62 H62           -2.2141    -6.7553     1.3860 H       
  63 H63           -4.9647    -4.8744     0.2015 H       
  64 H64           -5.7584    -5.1082    -1.2411 H       
@<TRIPOS>BOND
   1    1    2 1
   2    1    3 1
   3    1   33 1
   4    1   34 1
   5    2    7 1
   6    2   35 1
   7    2   36 1
   8    3    4 1
   9    3    5 1
  10    3    6 1
  11    4   19 ar
  12    4   23 ar
  13    5   14 ar
  14    5   18 ar
  15    7    8 1
  16    7   37 1
  17    7   38 1
  18    8    9 1
  19    8   13 1
  20    9   10 1
  21    9   39 1
  22    9   40 1
  23   10   11 1
  24   10   41 1
  25   10   42 1
  26   11   12 1
  27   11   24 1
  28   11   25 1
  29   12   13 1
  30   12   43 1
  31   12   44 1
  32   13   45 1
  33   13   46 1
  34   14   15 ar
  35   14   47 1
  36   15   16 ar
  37   15   48 1
  38   16   17 ar
  39   16   49 1
  40   17   18 ar
  41   17   50 1
  42   18   51 1
  43   19   20 ar
  44   19   52 1
  45   20   21 ar
  46   20   53 1
  47   21   22 ar
  48   21   54 1
  49   22   23 ar
  50   22   55 1
  51   23   56 1
  52   24   26 ar
  53   24   30 ar
  54   25   32 1
  55   25   57 1
  56   25   58 1
  57   26   27 ar
  58   26   59 1
  59   27   28 ar
  60   27   60 1
  61   28   29 ar
  62   28   31 1
  63   29   30 ar
  64   29   61 1
  65   30   62 1
  66   32   63 1
  67   32   64 1

#	End of record

