#	Name: ASD01410462
#	Creating user name:	WinNT
#	Creation time:	15. 06. 2019 19:17

#	Modifying user name:	WinNT
#	Modification time:	15. 06. 2019 19:17

#	Program:	/corina/corina34_cracker 3.40 0067  02.08.2006

@<TRIPOS>MOLECULE
ASD01410462
  70   74    0    0    0
SMALL
NO_CHARGES


@<TRIPOS>ATOM
   1 C1            -0.8432     1.8576    -0.0279 C.ar    
   2 C2            -1.2352     0.5324     0.0209 C.ar    
   3 C3            -0.2871    -0.4664     0.1252 C.ar    
   4 C4             1.0616    -0.1385     0.1811 C.ar    
   5 C5             1.4519     1.1937     0.1318 C.ar    
   6 C6             0.4986     2.1875     0.0275 C.ar    
   7 S7            -2.0557     3.1283    -0.1684 S.o2    
   8 O8            -1.3960     4.2514    -0.7366 O.2     
   9 O9            -3.2036     2.5252    -0.7495 O.2     
  10 N10           -2.4860     3.5674     1.3693 N.am    
  11 N11            2.0230    -1.1461     0.2870 N.pl3   
  12 C12            3.4450    -0.7985     0.3458 C.3     
  13 C13            4.2657    -2.0575     0.4575 C.2     
  14 O14            3.7168    -3.1387     0.4853 O.2     
  15 N15            5.6095    -1.9820     0.5266 N.am    
  16 C16            6.4294    -3.1982     0.6360 C.3     
  17 C17            7.5167    -3.1510    -0.4428 C.3     
  18 N18            8.2597    -1.8888    -0.3297 N.3     
  19 C19            7.3877    -0.7330    -0.5786 C.3     
  20 C20            6.2955    -0.6815     0.4885 C.3     
  21 C21            9.3641    -1.8782    -1.1894 C.ar    
  22 C22           10.4185    -2.7658    -0.9833 C.ar    
  23 C23           11.5084    -2.7512    -1.8371 C.ar    
  24 C24           11.5495    -1.8568    -2.8915 C.ar    
  25 C25           10.5044    -0.9757    -3.0964 C.ar    
  26 C26            9.4097    -0.9881    -2.2520 C.ar    
  27 O27           10.3771    -3.6442     0.0544 O.3     
  28 C28           11.4930    -4.5241     0.2043 C.3     
  29 S29           -1.8383     4.6894     3.8644 S.3     
  30 C30           -1.5659     4.1540     2.1966 C.2     
  31 N31           -0.3153     4.4258     1.9048 N.2     
  32 C32            0.4678     4.9938     2.7952 C.2     
  33 C33           -0.1778     5.2773     4.0895 C.2     
  34 O34            1.6360     5.2642     2.5683 O.2     
  35 C35            0.3666     5.8515     5.1906 C.2     
  36 C36           -0.4034     5.9204     6.4403 C.ar    
  37 C37           -0.2252     6.9966     7.3191 C.ar    
  38 C38           -0.9531     7.0531     8.4902 C.ar    
  39 C39           -1.8561     6.0503     8.7968 C.ar    
  40 C40           -2.0374     4.9834     7.9335 C.ar    
  41 C41           -1.3231     4.9143     6.7564 C.ar    
  42 Cl42           0.9081     8.2548     6.9366 Cl      
  43 H43           -2.2840     0.2782    -0.0222 H       
  44 H44           -0.5940    -1.5012     0.1636 H       
  45 H45            2.4997     1.4520     0.1750 H       
  46 H46            0.8014     3.2235    -0.0112 H       
  47 H47           -3.3897     3.4091     1.6839 H       
  48 H48            1.7492    -2.0761     0.3217 H       
  49 H49            3.7254    -0.2612    -0.5601 H       
  50 H50            3.6289    -0.1666     1.2147 H       
  51 H51            6.8930    -3.2398     1.6215 H       
  52 H52            5.8024    -4.0771     0.4857 H       
  53 H53            8.2004    -3.9889    -0.3071 H       
  54 H54            7.0545    -3.2140    -1.4280 H       
  55 H55            7.9780     0.1826    -0.5413 H       
  56 H56            6.9274    -0.8297    -1.5619 H       
  57 H57            5.5801     0.1027     0.2407 H       
  58 H58            6.7460    -0.4766     1.4596 H       
  59 H59           12.3268    -3.4381    -1.6797 H       
  60 H60           12.4006    -1.8466    -3.5562 H       
  61 H61           10.5412    -0.2787    -3.9205 H       
  62 H62            8.5924    -0.3016    -2.4170 H       
  63 H63           12.4003    -3.9384     0.3523 H       
  64 H64           11.3328    -5.1703     1.0674 H       
  65 H65           11.5971    -5.1350    -0.6925 H       
  66 H66            1.3662     6.2583     5.1491 H       
  67 H67           -0.8173     7.8818     9.1693 H       
  68 H68           -2.4224     6.1001     9.7150 H       
  69 H69           -2.7437     4.2048     8.1810 H       
  70 H70           -1.4695     4.0834     6.0823 H       
@<TRIPOS>BOND
   1    1    2 ar
   2    1    6 ar
   3    1    7 1
   4    2    3 ar
   5    2   43 1
   6    3    4 ar
   7    3   44 1
   8    4    5 ar
   9    4   11 1
  10    5    6 ar
  11    5   45 1
  12    6   46 1
  13    7    8 2
  14    7    9 2
  15    7   10 am
  16   10   30 1
  17   10   47 1
  18   11   12 1
  19   11   48 1
  20   12   13 1
  21   12   49 1
  22   12   50 1
  23   13   14 2
  24   13   15 am
  25   15   16 1
  26   15   20 1
  27   16   17 1
  28   16   51 1
  29   16   52 1
  30   17   18 1
  31   17   53 1
  32   17   54 1
  33   18   19 1
  34   18   21 1
  35   19   20 1
  36   19   55 1
  37   19   56 1
  38   20   57 1
  39   20   58 1
  40   21   22 ar
  41   21   26 ar
  42   22   23 ar
  43   22   27 1
  44   23   24 ar
  45   23   59 1
  46   24   25 ar
  47   24   60 1
  48   25   26 ar
  49   25   61 1
  50   26   62 1
  51   27   28 1
  52   28   63 1
  53   28   64 1
  54   28   65 1
  55   29   30 1
  56   29   33 1
  57   30   31 2
  58   31   32 1
  59   32   33 1
  60   32   34 2
  61   33   35 2
  62   35   36 1
  63   35   66 1
  64   36   37 ar
  65   36   41 ar
  66   37   38 ar
  67   37   42 1
  68   38   39 ar
  69   38   67 1
  70   39   40 ar
  71   39   68 1
  72   40   41 ar
  73   40   69 1
  74   41   70 1

#	End of record

