#	Name: ASD04880007
#	Creating user name:	WinNT
#	Creation time:	15. 06. 2019 20:52

#	Modifying user name:	WinNT
#	Modification time:	15. 06. 2019 20:52

#	Program:	/corina/corina34_cracker 3.40 0067  02.08.2006

@<TRIPOS>MOLECULE
ASD04880007
  40   42    0    0    0
SMALL
NO_CHARGES


@<TRIPOS>ATOM
   1 C1            -0.1649     1.5179    -0.6556 C.2     
   2 C2            -0.1375     0.0111    -0.6578 C.3     
   3 O3             0.7240     2.1414    -1.1960 O.2     
   4 N4            -1.1802     2.1725    -0.0579 N.am    
   5 C5            -1.1496     3.5680     0.0436 C.ar    
   6 C6            -2.3267     4.2948    -0.0406 C.ar    
   7 C7            -2.2908     5.6862     0.0617 C.ar    
   8 C8            -1.0681     6.3366     0.2483 C.ar    
   9 C9             0.0974     5.6031     0.3308 C.ar    
  10 C10            0.0604     4.2242     0.2346 C.ar    
  11 N11           -5.7321     6.9231    -0.2482 N.am    
  12 N12           -4.7154     5.9716    -0.1978 N.2     
  13 C13           -3.5386     6.4674    -0.0273 C.2     
  14 C14           -3.6338     7.9734     0.0674 C.3     
  15 C15           -5.1405     8.2607    -0.0862 C.3     
  16 C16           -7.0427     6.6614    -0.4227 C.2     
  17 C17           -7.4906     5.2792    -0.6933 C.ar    
  18 C18           -6.5766     4.2250    -0.6496 C.ar    
  19 C19           -7.0024     2.9354    -0.9032 C.ar    
  20 C20           -8.3335     2.6888    -1.2006 C.ar    
  21 C21           -9.2425     3.7303    -1.2451 C.ar    
  22 C22           -8.8305     5.0218    -0.9880 C.ar    
  23 O23           -7.8565     7.5624    -0.3576 O.2     
  24 F24           -6.1201     1.9132    -0.8615 F       
  25 H25            0.7496    -0.3353    -1.1879 H       
  26 H26           -0.1126    -0.3533     0.3692 H       
  27 H27           -1.0297    -0.3678    -1.1562 H       
  28 H28           -1.9321     1.6764     0.3019 H       
  29 H29           -3.2685     3.7862    -0.1853 H       
  30 H30           -1.0355     7.4132     0.3277 H       
  31 H31            1.0415     6.1074     0.4747 H       
  32 H32            0.9759     3.6554     0.3041 H       
  33 H33           -3.2756     8.3189     1.0371 H       
  34 H34           -3.0708     8.4435    -0.7389 H       
  35 H35           -5.3265     8.8719    -0.9693 H       
  36 H36           -5.5313     8.7472     0.8075 H       
  37 H37           -5.5392     4.4171    -0.4185 H       
  38 H38           -8.6622     1.6794    -1.3989 H       
  39 H39          -10.2782     3.5316    -1.4778 H       
  40 H40           -9.5429     5.8330    -1.0189 H       
@<TRIPOS>BOND
   1    1    2 1
   2    1    3 2
   3    1    4 am
   4    2   25 1
   5    2   26 1
   6    2   27 1
   7    4    5 1
   8    4   28 1
   9    5    6 ar
  10    5   10 ar
  11    6    7 ar
  12    6   29 1
  13    7    8 ar
  14    7   13 1
  15    8    9 ar
  16    8   30 1
  17    9   10 ar
  18    9   31 1
  19   10   32 1
  20   11   12 1
  21   11   15 1
  22   11   16 am
  23   12   13 2
  24   13   14 1
  25   14   15 1
  26   14   33 1
  27   14   34 1
  28   15   35 1
  29   15   36 1
  30   16   17 1
  31   16   23 2
  32   17   18 ar
  33   17   22 ar
  34   18   19 ar
  35   18   37 1
  36   19   20 ar
  37   19   24 1
  38   20   21 ar
  39   20   38 1
  40   21   22 ar
  41   21   39 1
  42   22   40 1

#	End of record

