#	Name: ASD01150895
#	Creating user name:	WinNT
#	Creation time:	15. 06. 2019 19:05

#	Modifying user name:	WinNT
#	Modification time:	15. 06. 2019 19:05

#	Program:	/corina/corina34_cracker 3.40 0067  02.08.2006

@<TRIPOS>MOLECULE
ASD01150895
  65   67    0    0    0
SMALL
NO_CHARGES


@<TRIPOS>ATOM
   1 C1            -0.0184     1.5028     0.0103 C.3     
   2 C2             0.0021    -0.0041     0.0020 C.2     
   3 N3            -1.1558    -0.6938     0.0094 N.am    
   4 O4             1.0604    -0.5961    -0.0113 O.2     
   5 C5            -1.1370    -2.0846     0.0017 C.2     
   6 N6            -0.0479    -2.8568    -0.0124 N.2     
   7 C7            -0.3960    -4.1274    -0.0155 C.2     
   8 N8            -1.7505    -4.2227    -0.0034 N.pl3   
   9 C9            -2.2477    -2.9185     0.0134 C.2     
  10 C10           -3.6019    -2.5272     0.0301 C.2     
  11 O11           -4.5753    -3.4633     0.0308 O.3     
  12 O12           -3.8940    -1.3450     0.0438 O.2     
  13 C13           -5.9254    -2.9954     0.0481 C.3     
  14 C14           -6.8797    -4.1913     0.0462 C.3     
  15 S15            0.7212    -5.4899    -0.0338 S.3     
  16 C16            2.2988    -4.6026    -0.0440 C.3     
  17 C17           -2.5388    -5.4575    -0.0027 C.3     
  18 C18           -2.7963    -5.8883     1.4183 C.ar    
  19 C19           -3.9235    -5.4417     2.0824 C.ar    
  20 C20           -4.1596    -5.8369     3.3859 C.ar    
  21 C21           -3.2689    -6.6789     4.0250 C.ar    
  22 C22           -2.1423    -7.1262     3.3606 C.ar    
  23 C23           -1.9084    -6.7345     2.0557 C.ar    
  24 O24            1.3223     1.9974     0.0002 O.3     
  25 C25            1.4820     3.3470     0.0059 C.ar    
  26 C26            2.7561     3.8959    -0.0033 C.ar    
  27 C27            2.9159     5.2680     0.0026 C.ar    
  28 C28            1.8073     6.0942     0.0176 C.ar    
  29 C29            0.5364     5.5496     0.0273 C.ar    
  30 C30            0.3713     4.1781     0.0152 C.ar    
  31 C31            1.9844     7.5907     0.0240 C.3     
  32 C32            2.7487     8.0192    -1.2303 C.3     
  33 C33            0.6120     8.2667     0.0408 C.3     
  34 C34            2.7726     8.0057     1.2680 C.3     
  35 H35           -0.5455     1.8639    -0.8728 H       
  36 H36           -0.5286     1.8543     0.9071 H       
  37 H37           -2.0023    -0.2203     0.0200 H       
  38 H38           -6.0918    -2.3992     0.9452 H       
  39 H39           -6.1089    -2.3827    -0.8346 H       
  40 H40           -7.9095    -3.8343     0.0594 H       
  41 H41           -6.7133    -4.7875    -0.8510 H       
  42 H42           -6.6962    -4.8040     0.9288 H       
  43 H43            2.3551    -3.9718    -0.9312 H       
  44 H44            2.3722    -3.9816     0.8487 H       
  45 H45            3.1192    -5.3202    -0.0559 H       
  46 H46           -3.4891    -5.2822    -0.5071 H       
  47 H47           -1.9889    -6.2400    -0.5256 H       
  48 H48           -4.6193    -4.7839     1.5831 H       
  49 H49           -5.0399    -5.4874     3.9050 H       
  50 H50           -3.4531    -6.9870     5.0436 H       
  51 H51           -1.4462    -7.7838     3.8601 H       
  52 H52           -1.0281    -7.0840     1.5365 H       
  53 H53            3.6224     3.2510    -0.0147 H       
  54 H54            3.9075     5.6958    -0.0043 H       
  55 H55           -0.3279     6.1970     0.0398 H       
  56 H56           -0.6216     3.7532     0.0228 H       
  57 H57            2.1872     7.7236    -2.1166 H       
  58 H58            2.8768     9.1016    -1.2257 H       
  59 H59            3.7264     7.5376    -1.2422 H       
  60 H60            0.0675     7.9615     0.9344 H       
  61 H61            0.7401     9.3491     0.0454 H       
  62 H62            0.0505     7.9711    -0.8455 H       
  63 H63            3.7503     7.5241     1.2561 H       
  64 H64            2.9007     9.0881     1.2727 H       
  65 H65            2.2281     7.7004     2.1616 H       
@<TRIPOS>BOND
   1    1    2 1
   2    1   24 1
   3    1   35 1
   4    1   36 1
   5    2    3 am
   6    2    4 2
   7    3    5 1
   8    3   37 1
   9    5    6 1
  10    5    9 2
  11    6    7 2
  12    7    8 1
  13    7   15 1
  14    8    9 1
  15    8   17 1
  16    9   10 1
  17   10   11 1
  18   10   12 2
  19   11   13 1
  20   13   14 1
  21   13   38 1
  22   13   39 1
  23   14   40 1
  24   14   41 1
  25   14   42 1
  26   15   16 1
  27   16   43 1
  28   16   44 1
  29   16   45 1
  30   17   18 1
  31   17   46 1
  32   17   47 1
  33   18   19 ar
  34   18   23 ar
  35   19   20 ar
  36   19   48 1
  37   20   21 ar
  38   20   49 1
  39   21   22 ar
  40   21   50 1
  41   22   23 ar
  42   22   51 1
  43   23   52 1
  44   24   25 1
  45   25   26 ar
  46   25   30 ar
  47   26   27 ar
  48   26   53 1
  49   27   28 ar
  50   27   54 1
  51   28   29 ar
  52   28   31 1
  53   29   30 ar
  54   29   55 1
  55   30   56 1
  56   31   32 1
  57   31   33 1
  58   31   34 1
  59   32   57 1
  60   32   58 1
  61   32   59 1
  62   33   60 1
  63   33   61 1
  64   33   62 1
  65   34   63 1
  66   34   64 1
  67   34   65 1

#	End of record

