#	Name: ASD04882270
#	Creating user name:	WinNT
#	Creation time:	15. 06. 2019 20:54

#	Modifying user name:	WinNT
#	Modification time:	15. 06. 2019 20:54

#	Program:	/corina/corina34_cracker 3.40 0067  02.08.2006

@<TRIPOS>MOLECULE
ASD04882270
  75   78    0    0    0
SMALL
NO_CHARGES


@<TRIPOS>ATOM
   1 N1            -0.1365     1.5553    -0.0362 N.am    
   2 C2            -0.0766     0.1557    -0.0458 C.ar    
   3 C3            -1.2530    -0.5952     0.0292 C.ar    
   4 C4            -1.1952    -1.9841     0.0193 C.ar    
   5 C5             0.0209    -2.6252    -0.0645 C.ar    
   6 C6             1.2012    -1.8803    -0.1398 C.ar    
   7 C7             1.1454    -0.4837    -0.1353 C.ar    
   8 N8            -2.4847     0.0488     0.1145 N.3     
   9 C9            -2.6117     0.7766     1.3849 C.3     
  10 C10           -3.5903    -0.9043    -0.0558 C.3     
  11 C11           -4.9205    -0.1476    -0.0351 C.3     
  12 N12           -5.0474     0.5802     1.2352 N.3     
  13 C13           -3.9418     1.5333     1.4056 C.3     
  14 C14            2.5037    -2.5673    -0.2291 C.2     
  15 O15            3.5300    -1.9185    -0.2946 O.2     
  16 C16           -6.2828     1.2262     1.3208 C.ar    
  17 C17            0.8451     2.2678     0.5514 C.2     
  18 C18            0.8482     3.7308     0.4540 C.2     
  19 O19            1.7291     1.6967     1.1629 O.2     
  20 C20            1.7778     4.5694     0.9994 C.2     
  21 O21           -0.0637     4.4841    -0.1950 O.3     
  22 C22            0.2592     5.7780    -0.0711 C.2     
  23 C23            1.3913     5.8755     0.6603 C.2     
  24 N24            2.5561    -3.9140    -0.2380 N.am    
  25 C25           -6.6350     2.1826     0.3772 C.ar    
  26 C26           -7.8577     2.8191     0.4645 C.ar    
  27 C27           -8.7305     2.5055     1.4900 C.ar    
  28 C28           -8.3829     1.5536     2.4313 C.ar    
  29 C29           -7.1645     0.9093     2.3466 C.ar    
  30 C30           -6.7869    -0.1281     3.3724 C.3     
  31 C31           -0.5105     6.9345    -0.6552 C.3     
  32 C32            3.8495    -4.5962    -0.3267 C.3     
  33 C33            3.6292    -6.1102    -0.3182 C.3     
  34 C34            4.9801    -6.8227    -0.4108 C.3     
  35 C35            4.7631    -8.3139    -0.4025 C.2     
  36 O36            5.8142    -9.1455    -0.4757 O.3     
  37 C37            5.5304   -10.5694    -0.4626 C.3     
  38 C38            6.8422   -11.3518    -0.5529 C.3     
  39 O39            3.6430    -8.7610    -0.3300 O.2     
  40 H40           -0.8824     2.0118    -0.4559 H       
  41 H41           -2.1058    -2.5618     0.0778 H       
  42 H42            0.0626    -3.7044    -0.0716 H       
  43 H43            2.0558     0.0944    -0.1937 H       
  44 H44           -2.5828     0.0692     2.2137 H       
  45 H45           -1.7888     1.4848     1.4821 H       
  46 H46           -3.4809    -1.4216    -1.0090 H       
  47 H47           -3.5725    -1.6308     0.7566 H       
  48 H48           -4.9493     0.5598    -0.8639 H       
  49 H49           -5.7433    -0.8558    -0.1323 H       
  50 H50           -4.0512     2.0505     2.3588 H       
  51 H51           -3.9596     2.2598     0.5931 H       
  52 H52            2.6428     4.2832     1.5792 H       
  53 H53            1.9023     6.7870     0.9331 H       
  54 H54            1.7374    -4.4316    -0.1858 H       
  55 H55           -5.9534     2.4285    -0.4236 H       
  56 H56           -8.1322     3.5629    -0.2689 H       
  57 H57           -9.6856     3.0052     1.5563 H       
  58 H58           -9.0668     1.3112     3.2312 H       
  59 H59           -7.1230    -1.1094     3.0375 H       
  60 H60           -5.7042    -0.1380     3.4975 H       
  61 H61           -7.2605     0.1128     4.3242 H       
  62 H62           -1.3772     6.5570    -1.1979 H       
  63 H63           -0.8429     7.5923     0.1478 H       
  64 H64            0.1317     7.4906    -1.3381 H       
  65 H65            4.3502    -4.3070    -1.2507 H       
  66 H66            4.4681    -4.3143     0.5253 H       
  67 H67            3.1286    -6.3994     0.6058 H       
  68 H68            3.0106    -6.3921    -1.1703 H       
  69 H69            5.4808    -6.5335    -1.3349 H       
  70 H70            5.5987    -6.5407     0.4412 H       
  71 H71            5.0156   -10.8288     0.4624 H       
  72 H72            4.8977   -10.8216    -1.3136 H       
  73 H73            6.6292   -12.4207    -0.5431 H       
  74 H74            7.3570   -11.0923    -1.4780 H       
  75 H75            7.4749   -11.0996     0.2980 H       
@<TRIPOS>BOND
   1    1    2 1
   2    1   17 am
   3    1   40 1
   4    2    3 ar
   5    2    7 ar
   6    3    4 ar
   7    3    8 1
   8    4    5 ar
   9    4   41 1
  10    5    6 ar
  11    5   42 1
  12    6    7 ar
  13    6   14 1
  14    7   43 1
  15    8    9 1
  16    8   10 1
  17    9   13 1
  18    9   44 1
  19    9   45 1
  20   10   11 1
  21   10   46 1
  22   10   47 1
  23   11   12 1
  24   11   48 1
  25   11   49 1
  26   12   13 1
  27   12   16 1
  28   13   50 1
  29   13   51 1
  30   14   15 2
  31   14   24 am
  32   16   25 ar
  33   16   29 ar
  34   17   19 2
  35   17   18 1
  36   18   20 2
  37   18   21 1
  38   20   23 1
  39   20   52 1
  40   21   22 1
  41   22   23 2
  42   22   31 1
  43   23   53 1
  44   24   32 1
  45   24   54 1
  46   25   26 ar
  47   25   55 1
  48   26   27 ar
  49   26   56 1
  50   27   28 ar
  51   27   57 1
  52   28   29 ar
  53   28   58 1
  54   29   30 1
  55   30   59 1
  56   30   60 1
  57   30   61 1
  58   31   62 1
  59   31   63 1
  60   31   64 1
  61   32   33 1
  62   32   65 1
  63   32   66 1
  64   33   34 1
  65   33   67 1
  66   33   68 1
  67   34   35 1
  68   34   69 1
  69   34   70 1
  70   35   36 1
  71   35   39 2
  72   36   37 1
  73   37   38 1
  74   37   71 1
  75   37   72 1
  76   38   73 1
  77   38   74 1
  78   38   75 1

#	End of record

