#	Name: ASD01814440
#	Creating user name:	WinNT
#	Creation time:	15. 06. 2019 19:32

#	Modifying user name:	WinNT
#	Modification time:	15. 06. 2019 19:32

#	Program:	/corina/corina34_cracker 3.40 0067  02.08.2006

@<TRIPOS>MOLECULE
ASD01814440
  55   60    0    0    0
SMALL
NO_CHARGES


@<TRIPOS>ATOM
   1 C1            -0.0204     1.3733     0.1434 C.ar    
   2 C2             0.0112    -0.0082     0.2488 C.ar    
   3 C3             1.2040    -0.6965     0.1506 C.ar    
   4 C4             2.3903    -0.0009    -0.0564 C.ar    
   5 C5             2.3522     1.4027    -0.1627 C.ar    
   6 C6             1.1462     2.0827    -0.0622 C.ar    
   7 N7             3.5986    -0.6600    -0.1584 N.pl3   
   8 N8             4.7188    -0.0650    -0.3486 N.2     
   9 C9             4.8417     1.2318    -0.4670 C.2     
  10 C10            3.6367     2.0929    -0.3819 C.2     
  11 C11            5.9525     2.1616    -0.6830 C.2     
  12 N12            5.4087     3.3973    -0.7117 N.am    
  13 N13            4.0254     3.3239    -0.5294 N.2     
  14 C14            3.6020    -2.1204    -0.0426 C.3     
  15 C15            5.0125    -2.6322    -0.1822 C.ar    
  16 C16            5.8089    -2.7749     0.9392 C.ar    
  17 C17            7.1022    -3.2433     0.8144 C.ar    
  18 C18            7.6024    -3.5713    -0.4385 C.ar    
  19 C19            6.8003    -3.4273    -1.5625 C.ar    
  20 C20            5.5060    -2.9634    -1.4308 C.ar    
  21 O21            7.1318     1.8770    -0.8106 O.2     
  22 C22            6.1622     4.6386    -0.9060 C.3     
  23 N23            8.9148    -4.0465    -0.5684 N.pl3   
  24 C24            9.5225    -4.4001    -1.7235 C.2     
  25 C25           10.7785    -4.8028    -1.4214 C.2     
  26 C26           10.9451    -4.6921    -0.0366 C.2     
  27 N27            9.8311    -4.2333     0.4746 N.2     
  28 C28            5.6562     5.3539    -2.1624 C.3     
  29 C29            6.3941     6.6867    -2.3135 C.3     
  30 O30            6.1918     7.4773    -1.1405 O.3     
  31 C31            6.6881     6.8795     0.0589 C.3     
  32 C32            5.9620     5.5545     0.3053 C.3     
  33 Cl33           1.2230    -2.4271     0.2859 Cl      
  34 O34            6.4968     4.9267     1.4723 O.3     
  35 H35           -0.9621     1.8969     0.2179 H       
  36 H36           -0.9076    -0.5525     0.4099 H       
  37 H37            1.1206     3.1593    -0.1439 H       
  38 H38            3.2056    -2.4086     0.9310 H       
  39 H39            2.9806    -2.5487    -0.8291 H       
  40 H40            5.4192    -2.5196     1.9136 H       
  41 H41            7.7239    -3.3539     1.6906 H       
  42 H42            7.1867    -3.6813    -2.5385 H       
  43 H43            4.8815    -2.8511    -2.3048 H       
  44 H44            7.2215     4.4081    -1.0194 H       
  45 H45            9.0839    -4.3676    -2.7099 H       
  46 H46           11.5213    -5.1487    -2.1250 H       
  47 H47           11.8403    -4.9384     0.5150 H       
  48 H48            5.8454     4.7316    -3.0371 H       
  49 H49            4.5859     5.5386    -2.0703 H       
  50 H50            7.4596     6.4992    -2.4462 H       
  51 H51            6.0077     7.2197    -3.1822 H       
  52 H52            7.7575     6.6946    -0.0428 H       
  53 H53            6.5135     7.5515     0.8992 H       
  54 H54            4.8979     5.7432     0.4473 H       
  55 H55            6.4085     5.4541     2.2780 H       
@<TRIPOS>BOND
   1    1    2 ar
   2    1    6 ar
   3    1   35 1
   4    2    3 ar
   5    2   36 1
   6    3    4 ar
   7    3   33 1
   8    4    5 ar
   9    4    7 1
  10    5    6 ar
  11    5   10 1
  12    6   37 1
  13    7    8 1
  14    7   14 1
  15    8    9 2
  16    9   10 1
  17    9   11 1
  18   10   13 2
  19   11   12 am
  20   11   21 2
  21   12   13 1
  22   12   22 1
  23   14   15 1
  24   14   38 1
  25   14   39 1
  26   15   16 ar
  27   15   20 ar
  28   16   17 ar
  29   16   40 1
  30   17   18 ar
  31   17   41 1
  32   18   19 ar
  33   18   23 1
  34   19   20 ar
  35   19   42 1
  36   20   43 1
  37   22   28 1
  38   22   32 1
  39   22   44 1
  40   23   24 1
  41   23   27 1
  42   24   25 2
  43   24   45 1
  44   25   26 1
  45   25   46 1
  46   26   27 2
  47   26   47 1
  48   28   29 1
  49   28   48 1
  50   28   49 1
  51   29   30 1
  52   29   50 1
  53   29   51 1
  54   30   31 1
  55   31   32 1
  56   31   52 1
  57   31   53 1
  58   32   34 1
  59   32   54 1
  60   34   55 1

#	End of record

