#	Name: ASD01811058
#	Creating user name:	WinNT
#	Creation time:	15. 06. 2019 19:25

#	Modifying user name:	WinNT
#	Modification time:	15. 06. 2019 19:25

#	Program:	/corina/corina34_cracker 3.40 0067  02.08.2006

@<TRIPOS>MOLECULE
ASD01811058
  44   47    0    0    0
SMALL
NO_CHARGES


@<TRIPOS>ATOM
   1 C1            -0.0168     1.3905     0.0097 C.ar    
   2 C2             0.0021    -0.0041     0.0020 C.ar    
   3 C3            -1.2631    -0.8069    -0.0058 C.3     
   4 C4            -2.4668    -0.0179     0.3941 C.2     
   5 C5            -2.5150     1.3235     0.4103 C.2     
   6 C6            -1.3136     2.1046     0.0382 C.2     
   7 C7            -1.4847    -1.3602    -1.4149 C.3     
   8 C8            -2.6855    -2.2707    -1.4140 C.ar    
   9 C9            -3.9428    -1.7534    -1.6688 C.ar    
  10 C10           -5.0460    -2.5827    -1.6692 C.ar    
  11 C11           -4.8915    -3.9435    -1.4123 C.ar    
  12 C12           -3.6227    -4.4593    -1.1563 C.ar    
  13 C13           -2.5257    -3.6217    -1.1640 C.ar    
  14 C14           -6.0740    -4.8400    -1.4110 C.ar    
  15 C15           -5.9195    -6.2007    -1.1541 C.ar    
  16 C16           -7.0227    -7.0300    -1.1541 C.ar    
  17 C17           -8.2800    -6.5127    -1.4089 C.ar    
  18 C18           -8.4391    -5.1627    -1.6650 C.ar    
  19 C19           -7.3436    -4.3232    -1.6609 C.ar    
  20 O20           -1.3890     3.2867    -0.2334 O.2     
  21 C21           -3.7597     2.0162     0.7967 C.2     
  22 O22           -4.7439     1.3723     1.1011 O.2     
  23 O23           -3.8044     3.3626     0.8119 O.3     
  24 C24            1.1909     2.0872     0.0019 C.ar    
  25 C25            2.3707     1.3652    -0.0068 C.ar    
  26 N26            2.3518     0.0469    -0.0071 N.ar    
  27 C27            1.2301    -0.6443    -0.0029 C.ar    
  28 H28           -1.1498    -1.6448     0.6822 H       
  29 H29           -3.3533    -0.5602     0.6880 H       
  30 H30           -1.6549    -0.5351    -2.1066 H       
  31 H31           -0.6039    -1.9208    -1.7279 H       
  32 H32           -4.0615    -0.6984    -1.8674 H       
  33 H33           -6.0273    -2.1777    -1.8679 H       
  34 H34           -3.4973    -5.5132    -0.9566 H       
  35 H35           -1.5417    -4.0204    -0.9657 H       
  36 H36           -4.9382    -6.6058    -0.9557 H       
  37 H37           -6.9041    -8.0849    -0.9551 H       
  38 H38           -9.1405    -7.1652    -1.4083 H       
  39 H39           -9.4229    -4.7641    -1.8637 H       
  40 H40           -7.4689    -3.2692    -1.8606 H       
  41 H41           -4.6415     3.7712     1.0717 H       
  42 H42            1.2049     3.1671     0.0023 H       
  43 H43            3.3166     1.8864    -0.0138 H       
  44 H44            1.2688    -1.7236    -0.0033 H       
@<TRIPOS>BOND
   1    1    2 ar
   2    1   24 ar
   3    1    6 1
   4    2    3 1
   5    2   27 ar
   6    3    4 1
   7    3    7 1
   8    3   28 1
   9    4    5 2
  10    4   29 1
  11    5    6 1
  12    5   21 1
  13    6   20 2
  14    7    8 1
  15    7   30 1
  16    7   31 1
  17    8    9 ar
  18    8   13 ar
  19    9   10 ar
  20    9   32 1
  21   10   11 ar
  22   10   33 1
  23   11   12 ar
  24   11   14 1
  25   12   13 ar
  26   12   34 1
  27   13   35 1
  28   14   15 ar
  29   14   19 ar
  30   15   16 ar
  31   15   36 1
  32   16   17 ar
  33   16   37 1
  34   17   18 ar
  35   17   38 1
  36   18   19 ar
  37   18   39 1
  38   19   40 1
  39   21   22 2
  40   21   23 1
  41   23   41 1
  42   24   25 ar
  43   24   42 1
  44   25   26 ar
  45   25   43 1
  46   26   27 ar
  47   27   44 1

#	End of record

