#	Name: ASD01680126
#	Creating user name:	WinNT
#	Creation time:	15. 06. 2019 19:22

#	Modifying user name:	WinNT
#	Modification time:	15. 06. 2019 19:22

#	Program:	/corina/corina34_cracker 3.40 0067  02.08.2006

@<TRIPOS>MOLECULE
ASD01680126
 119  124    0    0    0
SMALL
NO_CHARGES


@<TRIPOS>ATOM
   1 C1            -0.8219    -2.0530     3.7923 C.2     
   2 C2            -0.9937    -0.6306     3.3251 C.3     
   3 C3             0.3287    -0.1194     2.7500 C.3     
   4 C4             0.2703     1.3425     2.2763 C.3     
   5 C5             1.6765     1.5105     2.8756 C.3     
   6 C6             1.3261     0.3503     3.8222 C.3     
   7 C7             0.6598     0.8011     5.1236 C.3     
   8 C8             2.4831    -0.6241     4.0518 C.3     
   9 C9             2.7870     1.1872     1.9096 C.2     
  10 O10            2.8136     0.1134     1.3576 O.2     
  11 C11            3.8644     2.2037     1.6323 C.3     
  12 O12           -0.1163    -2.8119     3.1710 O.2     
  13 O13           -1.4483    -2.4753     4.9018 O.3     
  14 C14           -2.0588    -0.5768     2.2603 C.2     
  15 O15           -1.7491    -0.6204     1.0939 O.2     
  16 N16           -3.7203    -1.0826     3.9750 N.3     
  17 C17           -3.5102    -0.4686     2.6511 C.3     
  18 C18           -3.9135     1.0165     2.7666 C.3     
  19 C19           -3.7896     1.2950     4.2877 C.3     
  20 C20           -4.2554    -0.0533     4.8916 C.3     
  21 N21           -4.3463    -1.1392     1.6524 N.am    
  22 S22           -4.1547    -2.7588     1.3649 S.o2    
  23 O23           -5.0555    -3.0896     0.3168 O.2     
  24 O24           -2.7547    -2.9899     1.2883 O.2     
  25 C25           -4.7225    -3.6135     2.7972 C.ar    
  26 C26           -5.9461    -3.2921     3.3542 C.ar    
  27 C27           -6.3916    -3.9626     4.4780 C.ar    
  28 C28           -5.6135    -4.9549     5.0445 C.ar    
  29 C29           -4.3903    -5.2770     4.4870 C.ar    
  30 C30           -3.9468    -4.6094     3.3607 C.ar    
  31 C31           -2.6156    -4.9640     2.7498 C.3     
  32 C32           -6.0987    -5.6853     6.2702 C.3     
  33 C33           -6.7943    -2.2103     2.7366 C.3     
  34 N34           -2.9906     1.8643     2.0079 N.am    
  35 C35           -3.3747     3.0949     1.6146 C.2     
  36 O36           -4.4482     3.5363     1.9661 O.2     
  37 C37           -2.4703     3.9223     0.7379 C.3     
  38 O38           -3.0398     5.2202     0.5565 O.3     
  39 N39           -4.0097     6.6173    -1.9485 N.am    
  40 C40           -2.7794     5.8168    -1.8110 C.3     
  41 C41           -2.3146     6.0514    -0.3520 C.3     
  42 C42           -2.6752     7.5465    -0.1467 C.3     
  43 C43           -3.9801     7.7015    -0.9559 C.3     
  44 C44           -3.9945     9.0570    -1.6654 C.3     
  45 N45           -5.3134     9.2818    -2.2622 N.pl3   
  46 C46           -5.5044    10.3346    -3.1495 C.ar    
  47 C47           -4.4387    11.1711    -3.4666 C.ar    
  48 C48           -4.6429    12.2147    -4.3509 C.ar    
  49 C49           -5.9108    12.3876    -4.8907 C.ar    
  50 C50           -6.9224    11.5200    -4.5319 C.ar    
  51 N51           -6.6975    10.5292    -3.6896 N.ar    
  52 C52           -4.9956     6.3955    -2.8402 C.2     
  53 C53           -4.8495     5.3289    -3.8536 C.ar    
  54 C54           -5.9775     4.8031    -4.4855 C.ar    
  55 C55           -5.8342     3.8084    -5.4305 C.ar    
  56 C56           -4.5758     3.3315    -5.7521 C.ar    
  57 C57           -3.4536     3.8484    -5.1294 C.ar    
  58 C58           -3.5825     4.8474    -4.1868 C.ar    
  59 O59           -6.0048     7.0723    -2.8114 O.2     
  60 C60           -2.0869     3.3229    -5.4860 C.3     
  61 F61           -2.1984     2.4116    -6.5415 F       
  62 F62           -1.2647     4.3866    -5.8731 F       
  63 F63           -1.5288     2.6828    -4.3742 F       
  64 C64           -7.0510     3.2395    -6.1138 C.3     
  65 F65           -7.3235     3.9770    -7.2710 F       
  66 F66           -6.8117     1.9046    -6.4571 F       
  67 F67           -8.1474     3.3089    -5.2476 F       
  68 H68           -1.2898    -0.0048     4.1671 H       
  69 H69            0.7621    -0.7991     2.0164 H       
  70 H70            0.2422     1.4493     1.1919 H       
  71 H71           -0.4931     1.9348     2.7808 H       
  72 H72            1.8224     2.4622     3.3867 H       
  73 H73            0.0517    -0.0117     5.5209 H       
  74 H74            1.4265     1.0699     5.8502 H       
  75 H75            0.0264     1.6661     4.9269 H       
  76 H76            2.9012    -0.9245     3.0911 H       
  77 H77            3.2551    -0.1374     4.6479 H       
  78 H78            2.1172    -1.5045     4.5801 H       
  79 H79            4.3839     2.4446     2.5598 H       
  80 H80            4.5744     1.7939     0.9140 H       
  81 H81            3.4141     3.1079     1.2227 H       
  82 H82           -1.3601    -3.4117     5.1263 H       
  83 H83           -4.3460    -1.8716     3.9125 H       
  84 H84           -4.9396     1.1645     2.4300 H       
  85 H85           -2.7569     1.5098     4.5625 H       
  86 H86           -4.4498     2.1075     4.5910 H       
  87 H87           -5.3440    -0.1002     4.9207 H       
  88 H88           -3.8423    -0.1841     5.8918 H       
  89 H89           -5.0122    -0.6346     1.1595 H       
  90 H90           -7.3473    -3.7110     4.9136 H       
  91 H91           -3.7823    -6.0520     4.9298 H       
  92 H92           -1.8524    -4.2790     3.1191 H       
  93 H93           -2.3506    -5.9852     3.0239 H       
  94 H94           -2.6810    -4.8844     1.6647 H       
  95 H95           -6.6728    -6.5611     5.9678 H       
  96 H96           -5.2433    -6.0001     6.8679 H       
  97 H97           -6.7309    -5.0228     6.8614 H       
  98 H98           -7.4551    -2.6491     1.9890 H       
  99 H99           -7.3911    -1.7296     3.5118 H       
 100 H100          -6.1502    -1.4698     2.2624 H       
 101 H101          -2.1030     1.5401     1.7887 H       
 102 H102          -1.4930     4.0173     1.2113 H       
 103 H103          -2.3589     3.4357    -0.2310 H       
 104 H104          -2.9935     4.7608    -1.9758 H       
 105 H105          -2.0202     6.1647    -2.5115 H       
 106 H106          -1.2411     5.8907    -0.2533 H       
 107 H107          -2.8478     7.7603     0.9080 H       
 108 H108          -1.8932     8.1905    -0.5490 H       
 109 H109          -4.8403     7.6194    -0.2915 H       
 110 H110          -3.7825     9.8466    -0.9446 H       
 111 H111          -3.2355     9.0657    -2.4476 H       
 112 H112          -6.0534     8.6961    -2.0381 H       
 113 H113          -3.4654    11.0079    -3.0278 H       
 114 H114          -3.8346    12.8803    -4.6154 H       
 115 H115          -6.1032    13.1931    -5.5839 H       
 116 H116          -7.9099    11.6509    -4.9493 H       
 117 H117          -6.9604     5.1740    -4.2349 H       
 118 H118          -4.4691     2.5522    -6.4921 H       
 119 H119          -2.7053     5.2531    -3.7047 H       
@<TRIPOS>BOND
   1    1    2 1
   2    1   12 2
   3    1   13 1
   4    2    3 1
   5    2   14 1
   6    2   68 1
   7    3    4 1
   8    3    6 1
   9    3   69 1
  10    4    5 1
  11    4   70 1
  12    4   71 1
  13    5    6 1
  14    5    9 1
  15    5   72 1
  16    6    7 1
  17    6    8 1
  18    7   73 1
  19    7   74 1
  20    7   75 1
  21    8   76 1
  22    8   77 1
  23    8   78 1
  24    9   10 2
  25    9   11 1
  26   11   79 1
  27   11   80 1
  28   11   81 1
  29   13   82 1
  30   14   15 2
  31   14   17 1
  32   16   17 1
  33   16   20 1
  34   16   83 1
  35   17   18 1
  36   17   21 1
  37   18   19 1
  38   18   34 1
  39   18   84 1
  40   19   20 1
  41   19   85 1
  42   19   86 1
  43   20   87 1
  44   20   88 1
  45   21   22 am
  46   21   89 1
  47   22   23 2
  48   22   24 2
  49   22   25 1
  50   25   26 ar
  51   25   30 ar
  52   26   27 ar
  53   26   33 1
  54   27   28 ar
  55   27   90 1
  56   28   29 ar
  57   28   32 1
  58   29   30 ar
  59   29   91 1
  60   30   31 1
  61   31   92 1
  62   31   93 1
  63   31   94 1
  64   32   95 1
  65   32   96 1
  66   32   97 1
  67   33   98 1
  68   33   99 1
  69   33  100 1
  70   34   35 am
  71   34  101 1
  72   35   36 2
  73   35   37 1
  74   37   38 1
  75   37  102 1
  76   37  103 1
  77   38   41 1
  78   39   40 1
  79   39   43 1
  80   39   52 am
  81   40   41 1
  82   40  104 1
  83   40  105 1
  84   41   42 1
  85   41  106 1
  86   42   43 1
  87   42  107 1
  88   42  108 1
  89   43   44 1
  90   43  109 1
  91   44   45 1
  92   44  110 1
  93   44  111 1
  94   45   46 1
  95   45  112 1
  96   46   47 ar
  97   46   51 ar
  98   47   48 ar
  99   47  113 1
 100   48   49 ar
 101   48  114 1
 102   49   50 ar
 103   49  115 1
 104   50   51 ar
 105   50  116 1
 106   52   53 1
 107   52   59 2
 108   53   54 ar
 109   53   58 ar
 110   54   55 ar
 111   54  117 1
 112   55   56 ar
 113   55   64 1
 114   56   57 ar
 115   56  118 1
 116   57   58 ar
 117   57   60 1
 118   58  119 1
 119   60   61 1
 120   60   62 1
 121   60   63 1
 122   64   65 1
 123   64   66 1
 124   64   67 1

#	End of record

