#	Name: ASD01913551
#	Creating user name:	WinNT
#	Creation time:	15. 06. 2019 20:01

#	Modifying user name:	WinNT
#	Modification time:	15. 06. 2019 20:01

#	Program:	/corina/corina34_cracker 3.40 0067  02.08.2006

@<TRIPOS>MOLECULE
ASD01913551
  37   39    0    0    0
SMALL
NO_CHARGES


@<TRIPOS>ATOM
   1 C1             0.3975     0.6406     1.2385 C.ar    
   2 C2             0.0764    -0.0528     0.0759 C.ar    
   3 C3             0.9875    -0.0720    -0.9706 C.ar    
   4 N4             2.1419     0.5560    -0.8689 N.ar    
   5 C5             2.4767     1.2222     0.2189 C.ar    
   6 C6             1.6215     1.2871     1.3028 C.ar    
   7 C7            -1.0930    -2.0573    -0.1142 C.ar    
   8 C8             0.1123    -2.7505    -0.1808 C.ar    
   9 C9             0.0953    -4.1318    -0.2570 C.ar    
  10 N10           -1.0409    -4.7956    -0.2672 N.ar    
  11 C11           -2.2141    -4.1754    -0.2054 C.ar    
  12 C12           -2.2785    -2.7883    -0.1270 C.ar    
  13 C13           -3.4651    -4.9686    -0.2206 C.2     
  14 N14           -3.4098    -6.3130    -0.2968 N.am    
  15 O15           -1.1123    -0.7025    -0.0330 O.3     
  16 C16           -4.5780    -7.0664    -0.1856 C.ar    
  17 O17           -4.5413    -4.4070    -0.1642 O.2     
  18 C18           -4.6729    -8.3291    -0.7686 C.ar    
  19 C19           -5.8461    -9.0426    -0.6351 C.ar    
  20 N20           -6.8687    -8.5441     0.0335 N.ar    
  21 C21           -6.8179    -7.3529     0.5995 C.ar    
  22 C22           -5.6795    -6.5787     0.5167 C.ar    
  23 C23           -8.0171    -6.8346     1.3508 C.3     
  24 H24           -0.2921     0.6779     2.0688 H       
  25 H25            0.7484    -0.6073    -1.8776 H       
  26 H26            3.4323     1.7235     0.2636 H       
  27 H27            1.9039     1.8353     2.1894 H       
  28 H28            1.0506    -2.2158    -0.1735 H       
  29 H29            1.0283    -4.6733    -0.3092 H       
  30 H30           -3.2331    -2.2858    -0.0764 H       
  31 H31           -2.5574    -6.7566    -0.4291 H       
  32 H32           -3.8398    -8.7428    -1.3174 H       
  33 H33           -5.9287   -10.0216    -1.0838 H       
  34 H34           -5.6446    -5.6048     0.9822 H       
  35 H35           -7.9488    -7.1355     2.3962 H       
  36 H36           -8.0436    -5.7468     1.2868 H       
  37 H37           -8.9262    -7.2465     0.9128 H       
@<TRIPOS>BOND
   1    1    2 ar
   2    1    6 ar
   3    1   24 1
   4    2    3 ar
   5    2   15 1
   6    3    4 ar
   7    3   25 1
   8    4    5 ar
   9    5    6 ar
  10    5   26 1
  11    6   27 1
  12    7    8 ar
  13    7   12 ar
  14    7   15 1
  15    8    9 ar
  16    8   28 1
  17    9   10 ar
  18    9   29 1
  19   10   11 ar
  20   11   12 ar
  21   11   13 1
  22   12   30 1
  23   13   14 am
  24   13   17 2
  25   14   16 1
  26   14   31 1
  27   16   18 ar
  28   16   22 ar
  29   18   19 ar
  30   18   32 1
  31   19   20 ar
  32   19   33 1
  33   20   21 ar
  34   21   22 ar
  35   21   23 1
  36   22   34 1
  37   23   35 1
  38   23   36 1
  39   23   37 1

#	End of record

