#	Name: ASD03731236
#	Creating user name:	WinNT
#	Creation time:	15. 06. 2019 20:45

#	Modifying user name:	WinNT
#	Modification time:	15. 06. 2019 20:45

#	Program:	/corina/corina34_cracker 3.40 0067  02.08.2006

@<TRIPOS>MOLECULE
ASD03731236
  60   65    0    0    0
SMALL
NO_CHARGES


@<TRIPOS>ATOM
   1 N1            -0.0162     1.3436     0.0094 N.am    
   2 C2            -0.1341     0.0013     0.0384 C.2     
   3 O3             0.8574    -0.6980    -0.0417 O.2     
   4 N4            -1.3510    -0.5660     0.1561 N.am    
   5 C5            -1.4791    -2.0250     0.1876 C.3     
   6 C6            -2.9548    -2.4045     0.3261 C.3     
   7 O7             1.5026    -7.7445     2.1446 O.3     
   8 C8             1.8048    -9.1325     2.3794 C.3     
   9 O9             0.6158    -9.6390     3.0141 O.3     
  10 C10           -0.4029    -8.8467     2.5678 C.ar    
  11 C11            0.1430    -7.6814     2.0342 C.ar    
  12 C12           -1.7742    -9.0288     2.5729 C.ar    
  13 C13           -2.6170    -8.0532     2.0490 C.ar    
  14 C14           -2.0604    -6.8898     1.5263 C.ar    
  15 C15           -0.6932    -6.7079     1.5141 C.ar    
  16 O16           -3.9767    -8.0416     1.9420 O.3     
  17 C17           -3.2101    -6.0313     1.0710 C.3     
  18 C18           -4.4258    -6.6879     1.7391 C.3     
  19 N19           -3.0829    -3.8636     0.3576 N.am    
  20 C20           -3.0486    -4.5977     1.4876 C.2     
  21 C21           -3.3419    -5.9991    -0.4228 C.ar    
  22 C22           -3.5141    -6.9701    -1.3839 C.ar    
  23 C23           -3.6046    -6.6160    -2.7183 C.ar    
  24 C24           -3.5209    -5.2849    -3.0843 C.ar    
  25 C25           -3.3474    -4.3087    -2.1255 C.ar    
  26 C26           -3.2558    -4.6559    -0.7798 C.ar    
  27 O27           -2.9140    -4.1819     2.6189 O.2     
  28 C28            1.2543     1.9357     0.0100 C.ar    
  29 C29            1.4700     3.1270    -0.6796 C.ar    
  30 C30            2.7274     3.7076    -0.6756 C.ar    
  31 C31            3.7653     3.1051     0.0116 C.ar    
  32 C32            3.5521     1.9230     0.6956 C.ar    
  33 C33            2.2984     1.3404     0.7016 C.ar    
  34 N34            5.1083     3.7276     0.0144 N.pl3   
  35 O35            5.2981     4.7690    -0.5881 O.2     
  36 O36            6.0236     3.1984     0.6191 O.2     
  37 O37            0.4485     3.7179    -1.3552 O.3     
  38 C38            0.7430     4.9375    -2.0394 C.3     
  39 H39           -0.8105     1.8997    -0.0158 H       
  40 H40           -2.1420    -0.0081     0.2200 H       
  41 H41           -1.0812    -2.4447    -0.7364 H       
  42 H42           -0.9210    -2.4205     1.0362 H       
  43 H43           -3.3527    -1.9848     1.2501 H       
  44 H44           -3.5129    -2.0090    -0.5225 H       
  45 H45            1.9859    -9.6498     1.4372 H       
  46 H46            2.6642    -9.2305     3.0426 H       
  47 H47           -2.1935    -9.9342     2.9862 H       
  48 H48           -0.2739    -5.8037     1.0983 H       
  49 H49           -5.2918    -6.6624     1.0776 H       
  50 H50           -4.6505    -6.2077     2.6914 H       
  51 H51           -3.5790    -8.0089    -1.0957 H       
  52 H52           -3.7405    -7.3772    -3.4722 H       
  53 H53           -3.5913    -5.0085    -4.1260 H       
  54 H54           -3.2824    -3.2714    -2.4192 H       
  55 H55            2.8975     4.6308    -1.2096 H       
  56 H56            4.3657     1.4559     1.2306 H       
  57 H57            2.1333     0.4195     1.2411 H       
  58 H58           -0.1564     5.3019    -2.5357 H       
  59 H59            1.0892     5.6818    -1.3224 H       
  60 H60            1.5207     4.7589    -2.7819 H       
@<TRIPOS>BOND
   1    1    2 am
   2    1   28 1
   3    1   39 1
   4    2    3 2
   5    2    4 am
   6    4    5 1
   7    4   40 1
   8    5    6 1
   9    5   41 1
  10    5   42 1
  11    6   19 1
  12    6   43 1
  13    6   44 1
  14    7    8 1
  15    7   11 1
  16    8    9 1
  17    8   45 1
  18    8   46 1
  19    9   10 1
  20   10   11 ar
  21   10   12 ar
  22   11   15 ar
  23   12   13 ar
  24   12   47 1
  25   13   14 ar
  26   13   16 1
  27   14   15 ar
  28   14   17 1
  29   15   48 1
  30   16   18 1
  31   17   18 1
  32   17   20 1
  33   17   21 1
  34   18   49 1
  35   18   50 1
  36   19   20 am
  37   19   26 1
  38   20   27 2
  39   21   22 ar
  40   21   26 ar
  41   22   23 ar
  42   22   51 1
  43   23   24 ar
  44   23   52 1
  45   24   25 ar
  46   24   53 1
  47   25   26 ar
  48   25   54 1
  49   28   29 ar
  50   28   33 ar
  51   29   30 ar
  52   29   37 1
  53   30   31 ar
  54   30   55 1
  55   31   32 ar
  56   31   34 1
  57   32   33 ar
  58   32   56 1
  59   33   57 1
  60   34   35 2
  61   34   36 2
  62   37   38 1
  63   38   58 1
  64   38   59 1
  65   38   60 1

#	End of record

