#	Name: ASD01028658
#	Creating user name:	WinNT
#	Creation time:	15. 06. 2019 18:57

#	Modifying user name:	WinNT
#	Modification time:	15. 06. 2019 18:57

#	Program:	/corina/corina34_cracker 3.40 0067  02.08.2006

@<TRIPOS>MOLECULE
ASD01028658
  49   54    0    0    0
SMALL
NO_CHARGES


@<TRIPOS>ATOM
   1 N1            -0.0157     1.3086     0.0092 N.ar    
   2 C2             0.0021    -0.0041     0.0020 C.ar    
   3 C3             1.1929    -0.7180    -0.0127 C.ar    
   4 C4             2.4010    -0.0409    -0.0206 C.ar    
   5 C5             2.3699     1.3759    -0.0131 C.ar    
   6 N6             3.4972     2.0878    -0.0196 N.ar    
   7 C7             3.4806     3.3981    -0.0124 C.ar    
   8 C8             2.2786     4.1130     0.0024 C.ar    
   9 C9             1.0780     3.4323     0.0097 C.ar    
  10 C10            1.1130     2.0256     0.0023 C.ar    
  11 N11            3.6056    -0.7290    -0.0349 N.pl3   
  12 O12            2.2928     5.4715     0.0099 O.3     
  13 C13            3.5727     6.1070     0.0021 C.3     
  14 C14            3.6123    -2.1940    -0.0419 C.3     
  15 C15            7.0125    -3.3794     0.5383 C.2     
  16 C16            8.0326    -3.7362     1.4406 C.2     
  17 C17            7.7939    -3.6552     2.7760 C.2     
  18 C18            6.5366    -3.2179     3.2449 C.2     
  19 N19            5.5830    -2.8848     2.4028 N.2     
  20 N20            5.7982    -2.9572     1.0251 N.pl3   
  21 N21            5.7563    -2.9368    -1.1225 N.2     
  22 N22            6.9294    -3.3428    -0.7816 N.2     
  23 C23            5.0353    -2.6897    -0.0573 C.2     
  24 N24            3.7457    -2.2528     7.3008 N.pl3   
  25 N25            4.1005    -2.3797     8.6493 N.2     
  26 C26            5.3261    -2.8073     8.7441 C.2     
  27 C27            5.8468    -2.9858     7.4400 C.ar    
  28 C28            7.0869    -3.4178     6.9482 C.ar    
  29 C29            7.2997    -3.4885     5.6057 C.ar    
  30 C30            6.2876    -3.1340     4.7044 C.ar    
  31 C31            5.0532    -2.7042     5.1707 C.ar    
  32 C32            4.8244    -2.6272     6.5397 C.ar    
  33 H33           -0.9340    -0.5427     0.0081 H       
  34 H34            1.1771    -1.7979    -0.0177 H       
  35 H35            4.4160     3.9379    -0.0177 H       
  36 H36            0.1381     3.9642     0.0211 H       
  37 H37            4.4433    -0.2401    -0.0403 H       
  38 H38            4.1345     5.8033     0.8854 H       
  39 H39            4.1186     5.8134    -0.8944 H       
  40 H40            3.4411     7.1890     0.0094 H       
  41 H41            3.1083    -2.5639     0.8510 H       
  42 H42            3.0920    -2.5555    -0.9289 H       
  43 H43            8.9927    -4.0705     1.0761 H       
  44 H44            8.5673    -3.9261     3.4794 H       
  45 H45            2.8860    -1.9561     6.9634 H       
  46 H46            5.8579    -2.9948     9.6652 H       
  47 H47            7.8736    -3.6936     7.6348 H       
  48 H48            8.2568    -3.8212     5.2321 H       
  49 H49            4.2747    -2.4308     4.4738 H       
@<TRIPOS>BOND
   1    1    2 ar
   2    1   10 ar
   3    2    3 ar
   4    2   33 1
   5    3    4 ar
   6    3   34 1
   7    4    5 ar
   8    4   11 1
   9    5    6 ar
  10    5   10 ar
  11    6    7 ar
  12    7    8 ar
  13    7   35 1
  14    8    9 ar
  15    8   12 1
  16    9   10 ar
  17    9   36 1
  18   11   14 1
  19   11   37 1
  20   12   13 1
  21   13   38 1
  22   13   39 1
  23   13   40 1
  24   14   23 1
  25   14   41 1
  26   14   42 1
  27   15   16 1
  28   15   20 1
  29   15   22 2
  30   16   17 2
  31   16   43 1
  32   17   18 1
  33   17   44 1
  34   18   19 2
  35   18   30 1
  36   19   20 1
  37   20   23 1
  38   21   22 1
  39   21   23 2
  40   24   25 1
  41   24   32 1
  42   24   45 1
  43   25   26 2
  44   26   27 1
  45   26   46 1
  46   27   28 ar
  47   27   32 ar
  48   28   29 ar
  49   28   47 1
  50   29   30 ar
  51   29   48 1
  52   30   31 ar
  53   31   32 ar
  54   31   49 1

#	End of record

