#	Name: ASD03240552
#	Creating user name:	WinNT
#	Creation time:	15. 06. 2019 20:35

#	Modifying user name:	WinNT
#	Modification time:	15. 06. 2019 20:35

#	Program:	/corina/corina34_cracker 3.40 0067  02.08.2006

@<TRIPOS>MOLECULE
ASD03240552
  62   69    0    0    0
SMALL
NO_CHARGES


@<TRIPOS>ATOM
   1 C1            -0.0166     1.3754     0.0096 C.ar    
   2 C2             0.0021    -0.0041     0.0020 C.ar    
   3 N3             1.1422    -0.6683    -0.0058 N.ar    
   4 C4             2.3145    -0.0481    -0.0057 C.ar    
   5 C5             2.3702     1.3442    -0.0124 C.ar    
   6 C6             1.1861     2.0698     0.0018 C.ar    
   7 N7             3.4821    -0.8058     0.0220 N.pl3   
   8 C8             4.3595    -0.7189     1.0995 C.ar    
   9 C9             4.9952     0.4897     1.4031 C.ar    
  10 C10            4.7631     1.6840     0.5614 C.2     
  11 N11            3.5939     2.0276    -0.0512 N.pl3   
  12 C12            4.6060    -1.8384     1.8829 C.ar    
  13 C13            5.4661    -1.7526     2.9611 C.ar    
  14 C14            6.0864    -0.5542     3.2697 C.ar    
  15 C15            5.8564     0.5665     2.4975 C.ar    
  16 N16            5.6742     2.5950     0.2839 N.2     
  17 C17            5.1437     3.5402    -0.5070 C.2     
  18 C18            3.8225     3.2041    -0.7375 C.2     
  19 C19            2.8493     3.9533    -1.5554 C.ar    
  20 C20            2.7500     5.3414    -1.4319 C.ar    
  21 C21            2.0270     3.2786    -2.4612 C.ar    
  22 C22            1.1200     3.9855    -3.2228 C.ar    
  23 C23            1.0235     5.3597    -3.0913 C.ar    
  24 C24            1.8384     6.0352    -2.2000 C.ar    
  25 C25            5.8477     4.7310    -1.0377 C.ar    
  26 C26            0.0303     6.1250    -3.9274 C.3     
  27 N27           -1.0483     5.2763    -4.4512 N.3     
  28 C28           -0.4710     7.4165    -3.2600 C.3     
  29 C29           -0.3841     8.0740    -4.6475 C.3     
  30 C30            0.6832     7.0199    -4.9941 C.3     
  31 C31            6.8092     5.3631    -0.2676 C.ar    
  32 C32            7.4813     6.4948    -0.7677 C.ar    
  33 C33            7.1543     6.9565    -2.0482 C.ar    
  34 C34            6.1828     6.3065    -2.8089 C.ar    
  35 C35            5.5416     5.2081    -2.3174 C.ar    
  36 N36            8.4375     7.2492    -0.1923 N.2     
  37 C37            8.8984     8.2393    -0.8583 C.2     
  38 S38            8.1521     8.3679    -2.3874 S.3     
  39 H39           -0.9556     1.9091     0.0170 H       
  40 H40           -0.9306    -0.5486     0.0028 H       
  41 H41            1.2002     3.1497     0.0064 H       
  42 H42            3.6865    -1.4000    -0.7169 H       
  43 H43            4.1250    -2.7768     1.6497 H       
  44 H44            5.6553    -2.6263     3.5672 H       
  45 H45            6.7526    -0.4959     4.1178 H       
  46 H46            6.3414     1.5004     2.7404 H       
  47 H47            3.3851     5.8698    -0.7364 H       
  48 H48            2.1016     2.2062    -2.5651 H       
  49 H49            0.4840     3.4654    -3.9237 H       
  50 H50            1.7577     7.1078    -2.1026 H       
  51 H51           -0.6751     4.4541    -4.9015 H       
  52 H52           -1.6979     5.0254    -3.7211 H       
  53 H53           -1.4880     7.3426    -2.8749 H       
  54 H54            0.2280     7.8331    -2.5348 H       
  55 H55           -1.2976     7.9779    -5.2343 H       
  56 H56           -0.0002     9.0939    -4.6240 H       
  57 H57            1.6983     7.3275    -4.7432 H       
  58 H58            0.5968     6.6280    -6.0075 H       
  59 H59            7.0437     4.9879     0.7177 H       
  60 H60            5.9399     6.6729    -3.7954 H       
  61 H61            4.7908     4.7104    -2.9131 H       
  62 H62            9.6644     8.9099    -0.4979 H       
@<TRIPOS>BOND
   1    1    2 ar
   2    1    6 ar
   3    1   39 1
   4    2    3 ar
   5    2   40 1
   6    3    4 ar
   7    4    5 ar
   8    4    7 1
   9    5    6 ar
  10    5   11 1
  11    6   41 1
  12    7    8 1
  13    7   42 1
  14    8    9 ar
  15    8   12 ar
  16    9   10 1
  17    9   15 ar
  18   10   11 1
  19   10   16 2
  20   11   18 1
  21   12   13 ar
  22   12   43 1
  23   13   14 ar
  24   13   44 1
  25   14   15 ar
  26   14   45 1
  27   15   46 1
  28   16   17 1
  29   17   18 2
  30   17   25 1
  31   18   19 1
  32   19   20 ar
  33   19   21 ar
  34   20   24 ar
  35   20   47 1
  36   21   22 ar
  37   21   48 1
  38   22   23 ar
  39   22   49 1
  40   23   24 ar
  41   23   26 1
  42   24   50 1
  43   25   31 ar
  44   25   35 ar
  45   26   27 1
  46   26   28 1
  47   26   30 1
  48   27   51 1
  49   27   52 1
  50   28   29 1
  51   28   53 1
  52   28   54 1
  53   29   30 1
  54   29   55 1
  55   29   56 1
  56   30   57 1
  57   30   58 1
  58   31   32 ar
  59   31   59 1
  60   32   33 ar
  61   32   36 1
  62   33   34 ar
  63   33   38 1
  64   34   35 ar
  65   34   60 1
  66   35   61 1
  67   36   37 2
  68   37   38 1
  69   37   62 1

#	End of record

