#	Name: ASD01870331
#	Creating user name:	WinNT
#	Creation time:	15. 06. 2019 19:39

#	Modifying user name:	WinNT
#	Modification time:	15. 06. 2019 19:39

#	Program:	/corina/corina34_cracker 3.40 0067  02.08.2006

@<TRIPOS>MOLECULE
ASD01870331
  30   31    0    0    0
SMALL
NO_CHARGES


@<TRIPOS>ATOM
   1 C1            -0.0100     1.3887     0.1548 C.ar    
   2 C2             0.0024    -0.0046     0.0019 C.ar    
   3 C3             1.2094    -0.6676    -0.1571 C.ar    
   4 C4             2.3940     0.0430    -0.1645 C.ar    
   5 C5             2.3861     1.4195    -0.0137 C.ar    
   6 C6             1.1949     2.0948     0.1455 C.ar    
   7 O7            -1.1622    -0.7016     0.0098 O.3     
   8 C8            -1.8035    -0.8308    -1.1631 C.2     
   9 C9            -3.0413    -1.6854    -1.2550 C.3     
  10 O10           -1.3880    -0.2617    -2.1447 O.2     
  11 C11           -1.2889     2.1057     0.3187 C.2     
  12 N12           -1.2964     3.4454     0.4655 N.am    
  13 O13           -2.3363     1.4880     0.3213 O.2     
  14 C14           -2.5005     4.1205     0.6197 C.2     
  15 C15           -4.7108     4.3545     0.7977 C.2     
  16 N16           -3.6689     3.5592     0.6422 N.2     
  17 S17           -2.6570     5.8118     0.8148 S.3     
  18 C18           -4.4083     5.6489     0.9141 C.2     
  19 N19           -5.3755     6.7548     1.0975 N.pl3   
  20 O20           -6.5687     6.5172     1.1539 O.2     
  21 O21           -4.9778     7.9022     1.1918 O.2     
  22 H22            1.2236    -1.7410    -0.2749 H       
  23 H23            3.3318    -0.4782    -0.2883 H       
  24 H24            3.3174     1.9665    -0.0208 H       
  25 H25            1.1933     3.1685     0.2624 H       
  26 H26           -3.2604    -2.1139    -0.2770 H       
  27 H27           -3.8823    -1.0730    -1.5802 H       
  28 H28           -2.8763    -2.4876    -1.9744 H       
  29 H29           -0.4609     3.9382     0.4634 H       
  30 H30           -5.7259     3.9871     0.8298 H       
@<TRIPOS>BOND
   1    1    2 ar
   2    1    6 ar
   3    1   11 1
   4    2    3 ar
   5    2    7 1
   6    3    4 ar
   7    3   22 1
   8    4    5 ar
   9    4   23 1
  10    5    6 ar
  11    5   24 1
  12    6   25 1
  13    7    8 1
  14    8    9 1
  15    8   10 2
  16    9   26 1
  17    9   27 1
  18    9   28 1
  19   11   12 am
  20   11   13 2
  21   12   14 1
  22   12   29 1
  23   14   17 1
  24   14   16 2
  25   15   16 1
  26   15   18 2
  27   15   30 1
  28   17   18 1
  29   18   19 1
  30   19   20 2
  31   19   21 2

#	End of record

