#	Name: ASD03092246
#	Creating user name:	WinNT
#	Creation time:	15. 06. 2019 20:32

#	Modifying user name:	WinNT
#	Modification time:	15. 06. 2019 20:32

#	Program:	/corina/corina34_cracker 3.40 0067  02.08.2006

@<TRIPOS>MOLECULE
ASD03092246
  62   66    0    0    0
SMALL
NO_CHARGES


@<TRIPOS>ATOM
   1 C1            -0.0035    -5.2226     8.0137 C.3     
   2 O2            -0.2695    -4.8205     6.6685 O.3     
   3 C3             0.7635    -4.8901     5.7881 C.ar    
   4 C4             2.0068    -5.3412     6.2062 C.ar    
   5 C5             3.0473    -5.4110     5.3043 C.ar    
   6 C6             2.8625    -5.0337     3.9802 C.ar    
   7 C7             4.0403    -5.1500     3.0480 C.3     
   8 C8             3.8131    -4.3162     1.7888 C.3     
   9 C9             2.4419    -4.6807     1.2078 C.3     
  10 C10            1.3630    -4.1450     2.1467 C.3     
  11 C11           -0.0012    -4.6778     1.7039 C.3     
  12 N12           -0.3145    -4.1667     0.3671 N.am    
  13 C13           -1.4230    -4.5887    -0.2729 C.2     
  14 O14           -2.1627    -5.3934     0.2589 O.2     
  15 C15           -1.7393    -4.0729    -1.6222 C.ar    
  16 C16           -2.8883    -4.5043    -2.2827 C.ar    
  17 C17           -3.1821    -4.0162    -3.5524 C.ar    
  18 C18           -2.3277    -3.0983    -4.1599 C.ar    
  19 C19           -1.1843    -2.6704    -3.5012 C.ar    
  20 C20           -0.8908    -3.1490    -2.2339 C.ar    
  21 N21           -0.3261    -1.7467    -4.1168 N.pl3   
  22 C22            0.8211    -1.2357    -3.6199 C.2     
  23 N23            1.3019    -0.4160    -4.5177 N.2     
  24 N24            0.5370    -0.3740    -5.5484 N.2     
  25 N25           -0.4728    -1.1593    -5.3858 N.2     
  26 C26           -4.4038    -4.4733    -4.2589 C.ar    
  27 C27           -5.2746    -3.5443    -4.8226 C.ar    
  28 C28           -6.4100    -3.9746    -5.4795 C.ar    
  29 C29           -6.6868    -5.3263    -5.5797 C.ar    
  30 C30           -5.8294    -6.2569    -5.0234 C.ar    
  31 C31           -4.6832    -5.8391    -4.3668 C.ar    
  32 O32           -3.8368    -6.7529    -3.8246 O.3     
  33 C33           -4.1869    -8.1303    -3.9740 C.3     
  34 C34            1.6301    -4.5804     3.5638 C.ar    
  35 C35            0.5788    -4.5164     4.4676 C.ar    
  36 H36            0.7813    -4.5930     8.4327 H       
  37 H37           -0.9100    -5.1185     8.6100 H       
  38 H38            0.3209    -6.2632     8.0245 H       
  39 H39            2.1592    -5.6363     7.2339 H       
  40 H40            4.0153    -5.7619     5.6304 H       
  41 H41            4.9373    -4.7962     3.5564 H       
  42 H42            4.1751    -6.1947     2.7679 H       
  43 H43            3.8346    -3.2562     2.0416 H       
  44 H44            4.5915    -4.5356     1.0579 H       
  45 H45            2.3287    -4.2285     0.2225 H       
  46 H46            2.3535    -5.7642     1.1274 H       
  47 H47            1.3554    -3.0559     2.1013 H       
  48 H48            0.0247    -5.7672     1.6795 H       
  49 H49           -0.7658    -4.3482     2.4073 H       
  50 H50            0.2757    -3.5246    -0.0573 H       
  51 H51           -3.5491    -5.2160    -1.8103 H       
  52 H52           -2.5559    -2.7197    -5.1453 H       
  53 H53           -0.0024    -2.8104    -1.7215 H       
  54 H54            1.2597    -1.4622    -2.6593 H       
  55 H55           -5.0621    -2.4882    -4.7457 H       
  56 H56           -7.0848    -3.2533    -5.9164 H       
  57 H57           -7.5770    -5.6560    -6.0947 H       
  58 H58           -6.0511    -7.3108    -5.1042 H       
  59 H59           -4.2448    -8.3775    -5.0340 H       
  60 H60           -3.4291    -8.7516    -3.4968 H       
  61 H61           -5.1539    -8.3123    -3.5052 H       
  62 H62           -0.3896    -4.1690     4.1394 H       
@<TRIPOS>BOND
   1    1    2 1
   2    1   36 1
   3    1   37 1
   4    1   38 1
   5    2    3 1
   6    3   35 ar
   7    3    4 ar
   8    4    5 ar
   9    4   39 1
  10    5    6 ar
  11    5   40 1
  12    6   34 ar
  13    6    7 1
  14    7    8 1
  15    7   41 1
  16    7   42 1
  17    8    9 1
  18    8   43 1
  19    8   44 1
  20    9   10 1
  21    9   45 1
  22    9   46 1
  23   10   11 1
  24   10   34 1
  25   10   47 1
  26   11   12 1
  27   11   48 1
  28   11   49 1
  29   12   13 am
  30   12   50 1
  31   13   14 2
  32   13   15 1
  33   15   20 ar
  34   15   16 ar
  35   16   17 ar
  36   16   51 1
  37   17   18 ar
  38   17   26 1
  39   18   19 ar
  40   18   52 1
  41   19   20 ar
  42   19   21 1
  43   20   53 1
  44   21   25 1
  45   21   22 1
  46   22   23 2
  47   22   54 1
  48   23   24 1
  49   24   25 2
  50   26   31 ar
  51   26   27 ar
  52   27   28 ar
  53   27   55 1
  54   28   29 ar
  55   28   56 1
  56   29   30 ar
  57   29   57 1
  58   30   31 ar
  59   30   58 1
  60   31   32 1
  61   32   33 1
  62   33   59 1
  63   33   60 1
  64   33   61 1
  65   34   35 ar
  66   35   62 1

#	End of record

