#	Name: ASD01884991
#	Creating user name:	WinNT
#	Creation time:	15. 06. 2019 19:49

#	Modifying user name:	WinNT
#	Modification time:	15. 06. 2019 19:49

#	Program:	/corina/corina34_cracker 3.40 0067  02.08.2006

@<TRIPOS>MOLECULE
ASD01884991
  37   40    0    0    0
SMALL
NO_CHARGES


@<TRIPOS>ATOM
   1 N1            -0.0168     1.3859     0.0097 N.pl3   
   2 C2             0.0021    -0.0041     0.0020 C.ar    
   3 C3            -1.2001    -0.7065     0.0040 C.ar    
   4 C4            -1.1756    -2.0863    -0.0036 C.ar    
   5 C5             0.0714    -2.7310    -0.0131 C.ar    
   6 C6             1.2339    -1.9565    -0.0145 C.ar    
   7 N7             1.1636    -0.6410    -0.0125 N.ar    
   8 C8             0.1505    -4.1608    -0.0208 C.1     
   9 C9             0.2153    -5.3329    -0.0271 C.1     
  10 C10            0.2944    -6.7627    -0.0348 C.2     
  11 C11           -0.7644    -7.6494    -0.0401 C.2     
  12 N12           -0.2729    -8.8848    -0.0465 N.2     
  13 C13            1.0548    -8.8413    -0.0457 C.2     
  14 N14            1.9733    -9.8180    -0.0506 N.2     
  15 C15            3.2554    -9.5437    -0.0485 C.2     
  16 C16            3.6957    -8.2027    -0.0410 C.2     
  17 C17            2.7658    -7.1997    -0.0360 C.2     
  18 N18            1.4433    -7.5263    -0.0444 N.pl3   
  19 C19            5.1455    -7.8858    -0.0381 C.ar    
  20 C20            5.7194    -7.2280    -1.1241 C.ar    
  21 C21            7.0680    -6.9356    -1.1168 C.ar    
  22 C22            7.8506    -7.2951    -0.0329 C.ar    
  23 Cl23           9.5466    -6.9245    -0.0295 Cl      
  24 C24            7.2851    -7.9488     1.0485 C.ar    
  25 C25            5.9362    -8.2401     1.0532 C.ar    
  26 H26            0.8166     1.8823     0.0044 H       
  27 H27           -0.8633     1.8595     0.0163 H       
  28 H28           -2.1416    -0.1773     0.0118 H       
  29 H29           -2.0931    -2.6561    -0.0019 H       
  30 H30            2.1993    -2.4406    -0.0218 H       
  31 H31           -1.8114    -7.3848    -0.0385 H       
  32 H32            3.9774   -10.3469    -0.0521 H       
  33 H33            3.0752    -6.1650    -0.0299 H       
  34 H34            5.1098    -6.9478    -1.9705 H       
  35 H35            7.5137    -6.4258    -1.9581 H       
  36 H36            7.8997    -8.2272     1.8918 H       
  37 H37            5.4950    -8.7458     1.8994 H       
@<TRIPOS>BOND
   1    1    2 1
   2    1   26 1
   3    1   27 1
   4    2    7 ar
   5    2    3 ar
   6    3    4 ar
   7    3   28 1
   8    4    5 ar
   9    4   29 1
  10    5    6 ar
  11    5    8 1
  12    6    7 ar
  13    6   30 1
  14    8    9 3
  15    9   10 1
  16   10   18 1
  17   10   11 2
  18   11   12 1
  19   11   31 1
  20   12   13 2
  21   13   18 1
  22   13   14 1
  23   14   15 2
  24   15   16 1
  25   15   32 1
  26   16   17 2
  27   16   19 1
  28   17   18 1
  29   17   33 1
  30   19   25 ar
  31   19   20 ar
  32   20   21 ar
  33   20   34 1
  34   21   22 ar
  35   21   35 1
  36   22   23 1
  37   22   24 ar
  38   24   25 ar
  39   24   36 1
  40   25   37 1

#	End of record

