#	Name: ASD05390010
#	Creating user name:	WinNT
#	Creation time:	15. 06. 2019 20:59

#	Modifying user name:	WinNT
#	Modification time:	15. 06. 2019 20:59

#	Program:	/corina/corina34_cracker 3.40 0067  02.08.2006

@<TRIPOS>MOLECULE
ASD05390010
  19   19    0    0    0
SMALL
NO_CHARGES


@<TRIPOS>ATOM
   1 C1            -0.0167     1.3773     0.0096 C.ar    
   2 C2             0.0021    -0.0041     0.0020 C.ar    
   3 C3            -1.1830    -0.7141     0.0091 C.ar    
   4 C4            -1.2285     2.0572     0.0306 C.ar    
   5 C5            -2.4207     1.3471     0.0440 C.ar    
   6 C6            -3.7367     2.0810     0.0663 C.3     
   7 N7            -1.2464     3.4537     0.0508 N.pl3   
   8 C8            -2.3984    -0.0404     0.0243 C.ar    
   9 N9            -3.5960    -0.7591     0.0372 N.pl3   
  10 H10            0.9115     1.9294     0.0037 H       
  11 H11            0.9453    -0.5301    -0.0098 H       
  12 H12           -1.1649    -1.7939     0.0024 H       
  13 H13           -4.0685     2.2630    -0.9559 H       
  14 H14           -4.4801     1.4781     0.5877 H       
  15 H15           -3.6133     3.0327     0.5831 H       
  16 H16           -2.0924     3.9276     0.0743 H       
  17 H17           -0.4128     3.9496     0.0415 H       
  18 H18           -4.4438    -0.2884     0.0600 H       
  19 H19           -3.5798    -1.7288     0.0234 H       
@<TRIPOS>BOND
   1    1    2 ar
   2    1   10 1
   3    1    4 ar
   4    2    3 ar
   5    2   11 1
   6    3   12 1
   7    3    8 ar
   8    4    5 ar
   9    4    7 1
  10    5    8 ar
  11    5    6 1
  12    6   13 1
  13    6   14 1
  14    6   15 1
  15    7   16 1
  16    7   17 1
  17    8    9 1
  18    9   18 1
  19    9   19 1

#	End of record

