#	Name: ASD06660164
#	Creating user name:	WinNT
#	Creation time:	15. 06. 2019 21:08

#	Modifying user name:	WinNT
#	Modification time:	15. 06. 2019 21:08

#	Program:	/corina/corina34_cracker 3.40 0067  02.08.2006

@<TRIPOS>MOLECULE
ASD06660164
  47   48    0    0    0
SMALL
NO_CHARGES


@<TRIPOS>ATOM
   1 C1            -0.0184     1.5028     0.0103 C.2     
   2 C2             0.0021    -0.0041     0.0020 C.3     
   3 C3            -0.7241    -0.5171    -1.2431 C.3     
   4 O4             1.0197     2.1211     0.0037 O.2     
   5 O5            -1.1898     2.1580     0.0194 O.3     
   6 N6             1.3897    -0.4735    -0.0138 N.am    
   7 C7             2.0717    -0.5994     1.1419 C.2     
   8 C8             3.4721    -1.0732     1.1260 C.ar    
   9 C9             3.7517    -2.4373     1.2212 C.ar    
  10 C10            5.0606    -2.8728     1.2053 C.ar    
  11 C11            6.0951    -1.9606     1.0957 C.ar    
  12 C12            5.8249    -0.6070     1.0009 C.ar    
  13 C13            4.5202    -0.1587     1.0099 C.ar    
  14 O14            1.5355    -0.3233     2.1972 O.2     
  15 C15            4.2274     1.3155     0.9003 C.3     
  16 C16            7.5225    -2.4435     1.0799 C.3     
  17 C17            2.6262    -3.4322     1.3416 C.3     
  18 C18           -0.8113    -2.0207    -1.1900 C.ar    
  19 C19           -1.8974    -2.6290    -0.5889 C.ar    
  20 C20           -1.9780    -4.0080    -0.5404 C.ar    
  21 C21           -0.9717    -4.7793    -1.0933 C.ar    
  22 C22            0.1149    -4.1701    -1.6947 C.ar    
  23 C23            0.1921    -2.7911    -1.7474 C.ar    
  24 Br24          -1.0811    -6.6660    -1.0267 Br      
  25 C25           -1.1335     3.6089     0.0270 C.3     
  26 H26           -0.4983    -0.3791     0.8948 H       
  27 H27           -1.7288    -0.0959    -1.2772 H       
  28 H28           -0.1736    -0.2164    -2.1345 H       
  29 H29            1.8177    -0.6938    -0.8559 H       
  30 H30            5.2783    -3.9281     1.2788 H       
  31 H31            6.6369     0.0999     0.9156 H       
  32 H32            4.1969     1.7550     1.8973 H       
  33 H33            5.0092     1.7986     0.3141 H       
  34 H34            3.2645     1.4593     0.4103 H       
  35 H35            7.8285    -2.6396     0.0523 H       
  36 H36            8.1692    -1.6799     1.5121 H       
  37 H37            7.6024    -3.3604     1.6640 H       
  38 H38            2.3155    -3.7516     0.3468 H       
  39 H39            2.9653    -4.2973     1.9115 H       
  40 H40            1.7836    -2.9674     1.8536 H       
  41 H41           -2.6829    -2.0267    -0.1569 H       
  42 H42           -2.8264    -4.4832    -0.0705 H       
  43 H43            0.9010    -4.7720    -2.1262 H       
  44 H44            1.0384    -2.3154    -2.2205 H       
  45 H45           -0.6017     3.9472     0.9164 H       
  46 H46           -0.6102     3.9569    -0.8636 H       
  47 H47           -2.1463     4.0118     0.0340 H       
@<TRIPOS>BOND
   1    1    2 1
   2    1    4 2
   3    1    5 1
   4    2    3 1
   5    2    6 1
   6    2   26 1
   7    3   18 1
   8    3   27 1
   9    3   28 1
  10    5   25 1
  11    6    7 am
  12    6   29 1
  13    7    8 1
  14    7   14 2
  15    8    9 ar
  16    8   13 ar
  17    9   10 ar
  18    9   17 1
  19   10   11 ar
  20   10   30 1
  21   11   12 ar
  22   11   16 1
  23   12   13 ar
  24   12   31 1
  25   13   15 1
  26   15   32 1
  27   15   33 1
  28   15   34 1
  29   16   35 1
  30   16   36 1
  31   16   37 1
  32   17   38 1
  33   17   39 1
  34   17   40 1
  35   18   19 ar
  36   18   23 ar
  37   19   20 ar
  38   19   41 1
  39   20   21 ar
  40   20   42 1
  41   21   22 ar
  42   21   24 1
  43   22   23 ar
  44   22   43 1
  45   23   44 1
  46   25   45 1
  47   25   46 1
  48   25   47 1

#	End of record

