#	Name: ASD01010014
#	Creating user name:	WinNT
#	Creation time:	15. 06. 2019 18:56

#	Modifying user name:	WinNT
#	Modification time:	15. 06. 2019 18:56

#	Program:	/corina/corina34_cracker 3.40 0067  02.08.2006

@<TRIPOS>MOLECULE
ASD01010014
  14   14    0    0    0
SMALL
NO_CHARGES


@<TRIPOS>ATOM
   1 C1            -0.0168     1.3893     0.0097 C.ar    
   2 C2             0.0021    -0.0041     0.0020 C.ar    
   3 C3             1.2225    -0.6606    -0.0131 C.ar    
   4 C4             2.3820     0.0992    -0.0201 C.ar    
   5 C5             2.2884     1.4818    -0.0118 C.ar    
   6 N6             1.1171     2.0794     0.0026 N.ar    
   7 C7            -1.3125     2.1059     0.0197 C.2     
   8 O8            -2.3528     1.4796     0.0212 O.2     
   9 O9            -1.3372     3.4524     0.0271 O.3     
  10 H10           -0.9212    -0.5644     0.0082 H       
  11 H11            1.2692    -1.7396    -0.0190 H       
  12 H12            3.3489    -0.3818    -0.0315 H       
  13 H13            3.1898     2.0767    -0.0172 H       
  14 H14           -2.2067     3.8755     0.0335 H       
@<TRIPOS>BOND
   1    1    2 ar
   2    1    6 ar
   3    1    7 1
   4    2    3 ar
   5    2   10 1
   6    3    4 ar
   7    3   11 1
   8    4    5 ar
   9    4   12 1
  10    5    6 ar
  11    5   13 1
  12    7    8 2
  13    7    9 1
  14    9   14 1

#	End of record

