#	Name: ASD00069497
#	Creating user name:	WinNT
#	Creation time:	15. 06. 2019 18:29

#	Modifying user name:	WinNT
#	Modification time:	15. 06. 2019 18:29

#	Program:	/corina/corina34_cracker 3.40 0067  02.08.2006

@<TRIPOS>MOLECULE
ASD00069497
  34   35    0    0    0
SMALL
NO_CHARGES


@<TRIPOS>ATOM
   1 O1            -0.0174     1.4305     0.0099 O.3     
   2 B2             0.0021    -0.0041     0.0020 Du      
   3 O3             1.0670    -0.3534    -0.8937 O.3     
   4 C4            -0.9361    -0.9782     0.7993 C.ar    
   5 C5             2.1089     0.6053    -0.6139 C.3     
   6 C6             1.3736     1.8147    -0.0013 C.3     
   7 C7             1.5763     3.0578    -0.8700 C.3     
   8 C8             1.8670     2.0726     1.4238 C.3     
   9 C9             3.1105     0.0270     0.3877 C.3     
  10 C10            2.8198     1.0122    -1.9062 C.3     
  11 C11           -1.9311    -0.4764     1.6357 C.ar    
  12 N12           -2.7188    -1.2925     2.3051 N.ar    
  13 C13           -2.6019    -2.6036     2.2144 C.ar    
  14 C14           -1.6383    -3.1794     1.4054 C.ar    
  15 C15           -0.7905    -2.3636     0.6771 C.ar    
  16 C16           -1.5178    -4.6788     1.3134 C.3     
  17 H17            1.1819     2.8713    -1.8689 H       
  18 H18            1.0512     3.9024    -0.4239 H       
  19 H19            2.6403     3.2853    -0.9361 H       
  20 H20            2.9371     2.2793     1.4061 H       
  21 H21            1.3383     2.9292     1.8419 H       
  22 H22            1.6771     1.1929     2.0388 H       
  23 H23            3.5790    -0.8603    -0.0381 H       
  24 H24            3.8754     0.7717     0.6077 H       
  25 H25            2.5906    -0.2424     1.3071 H       
  26 H26            2.0954     1.4363    -2.6014 H       
  27 H27            3.5854     1.7548    -1.6813 H       
  28 H28            3.2852     0.1354    -2.3564 H       
  29 H29           -2.0573     0.5915     1.7363 H       
  30 H30           -3.2685    -3.2372     2.7805 H       
  31 H31           -0.0294    -2.7861     0.0378 H       
  32 H32           -2.1512    -5.0453     0.5056 H       
  33 H33           -0.4809    -4.9483     1.1129 H       
  34 H34           -1.8342    -5.1272     2.2552 H       
@<TRIPOS>BOND
   1    1    2 1
   2    1    6 1
   3    2    3 1
   4    2    4 1
   5    3    5 1
   6    4   11 ar
   7    4   15 ar
   8    5    6 1
   9    5    9 1
  10    5   10 1
  11    6    7 1
  12    6    8 1
  13    7   17 1
  14    7   18 1
  15    7   19 1
  16    8   20 1
  17    8   21 1
  18    8   22 1
  19    9   23 1
  20    9   24 1
  21    9   25 1
  22   10   26 1
  23   10   27 1
  24   10   28 1
  25   11   12 ar
  26   11   29 1
  27   12   13 ar
  28   13   14 ar
  29   13   30 1
  30   14   15 ar
  31   14   16 1
  32   15   31 1
  33   16   32 1
  34   16   33 1
  35   16   34 1

#	End of record

