#	Name: ASD01885044
#	Creating user name:	WinNT
#	Creation time:	15. 06. 2019 19:49

#	Modifying user name:	WinNT
#	Modification time:	15. 06. 2019 19:49

#	Program:	/corina/corina34_cracker 3.40 0067  02.08.2006

@<TRIPOS>MOLECULE
ASD01885044
  39   41    0    0    0
SMALL
NO_CHARGES


@<TRIPOS>ATOM
   1 C1            -0.0168     1.3882     0.0097 C.ar    
   2 C2             0.0021    -0.0041     0.0020 C.ar    
   3 C3             1.2313    -0.6635    -0.0132 C.ar    
   4 C4             2.4002     0.1125    -0.0202 C.ar    
   5 C5             2.2916     1.4984    -0.0117 C.ar    
   6 N6             1.1150     2.0838     0.0026 N.ar    
   7 C7            -1.3129     2.1015     0.0196 C.2     
   8 O8            -2.3528     1.4723     0.0211 O.2     
   9 N9            -1.3406     3.4489     0.0271 N.am    
  10 O10            3.6200    -0.4817    -0.0346 O.3     
  11 C11            4.7608     0.3789    -0.0409 C.3     
  12 N12            8.1199    -1.0840    -0.0788 N.pl3   
  13 N13            7.2420     0.0076    -0.0654 N.2     
  14 C14            6.0174    -0.4528    -0.0568 C.2     
  15 C15            6.0759    -1.8503    -0.0644 C.2     
  16 C16            7.3796    -2.2124    -0.0779 C.2     
  17 C17            9.5830    -1.0132    -0.0970 C.3     
  18 C18            1.3007    -2.1449    -0.0214 C.ar    
  19 C19            0.5681    -2.8841     0.9058 C.ar    
  20 C20            0.6354    -4.2620     0.8943 C.ar    
  21 C21            1.4296    -4.9112    -0.0372 C.ar    
  22 C22            2.1595    -4.1805    -0.9608 C.ar    
  23 C23            2.0942    -2.8024    -0.9600 C.ar    
  24 F24            1.4928    -6.2607    -0.0446 F       
  25 H25           -0.9209    -0.5649     0.0082 H       
  26 H26            3.1868     2.1026    -0.0170 H       
  27 H27           -0.5107     3.9511     0.0259 H       
  28 H28           -2.1904     3.9166     0.0336 H       
  29 H29            4.7331     1.0124    -0.9274 H       
  30 H30            4.7497     1.0034     0.8524 H       
  31 H31            5.2299    -2.5217    -0.0605 H       
  32 H32            7.7596    -3.2233    -0.0864 H       
  33 H33            9.9588    -0.9983     0.9261 H       
  34 H34            9.9825    -1.8832    -0.6181 H       
  35 H35            9.8965    -0.1054    -0.6124 H       
  36 H36           -0.0509    -2.3789     1.6325 H       
  37 H37            0.0683    -4.8356     1.6126 H       
  38 H38            2.7773    -4.6906    -1.6850 H       
  39 H39            2.6600    -2.2337    -1.6831 H       
@<TRIPOS>BOND
   1    1    2 ar
   2    1    6 ar
   3    1    7 1
   4    2    3 ar
   5    2   25 1
   6    3    4 ar
   7    3   18 1
   8    4    5 ar
   9    4   10 1
  10    5    6 ar
  11    5   26 1
  12    7    8 2
  13    7    9 am
  14    9   27 1
  15    9   28 1
  16   10   11 1
  17   11   14 1
  18   11   29 1
  19   11   30 1
  20   12   13 1
  21   12   16 1
  22   12   17 1
  23   13   14 2
  24   14   15 1
  25   15   16 2
  26   15   31 1
  27   16   32 1
  28   17   33 1
  29   17   34 1
  30   17   35 1
  31   18   19 ar
  32   18   23 ar
  33   19   20 ar
  34   19   36 1
  35   20   21 ar
  36   20   37 1
  37   21   22 ar
  38   21   24 1
  39   22   23 ar
  40   22   38 1
  41   23   39 1

#	End of record

