#	Name: ASD01520002
#	Creating user name:	WinNT
#	Creation time:	15. 06. 2019 19:21

#	Modifying user name:	WinNT
#	Modification time:	15. 06. 2019 19:21

#	Program:	/corina/corina34_cracker 3.40 0067  02.08.2006

@<TRIPOS>MOLECULE
ASD01520002
  54   53    0    0    0
SMALL
NO_CHARGES


@<TRIPOS>ATOM
   1 C1            -0.1859     1.3748    -0.0491 C.2     
   2 C2            -0.1344    -0.1313    -0.0608 C.3     
   3 C3             1.3247    -0.5917    -0.0598 C.3     
   4 C4             1.3770    -2.1207    -0.0716 C.3     
   5 C5             2.8361    -2.5812    -0.0705 C.3     
   6 C6             2.8883    -4.1102    -0.0823 C.3     
   7 C7             4.3474    -4.5706    -0.0813 C.3     
   8 C8             4.3997    -6.0997    -0.0931 C.3     
   9 C9             5.8369    -6.5532    -0.0921 C.2     
  10 C10            6.2938    -7.3107     0.8993 C.2     
  11 C11            5.4391    -7.5937     2.0628 C.2     
  12 C12            5.8542    -8.4359     3.0029 C.2     
  13 C13            4.9787    -8.7258     4.1948 C.3     
  14 C14            4.6578   -10.2211     4.2402 C.3     
  15 C15            3.6696   -10.4964     5.3753 C.3     
  16 C16            3.3487   -11.9916     5.4207 C.3     
  17 C17            2.3605   -12.2669     6.5559 C.3     
  18 C18            2.0396   -13.7622     6.6013 C.3     
  19 O19            0.8392     2.0143    -0.0409 O.2     
  20 O20           -1.3706     2.0059    -0.0535 O.3     
  21 O21            5.6630    -8.3489     5.3914 O.3     
  22 O22            5.4229    -6.9599     5.8047 O.3     
  23 H23           -0.6383    -0.5189     0.8246 H       
  24 H24           -0.6327    -0.5049    -0.9553 H       
  25 H25            1.8286    -0.2041    -0.9451 H       
  26 H26            1.8230    -0.2180     0.8348 H       
  27 H27            0.8730    -2.5084     0.8138 H       
  28 H28            0.8787    -2.4944    -0.9661 H       
  29 H29            3.3400    -2.1935    -0.9559 H       
  30 H30            3.3343    -2.2075     0.8240 H       
  31 H31            2.3844    -4.4979     0.8030 H       
  32 H32            2.3901    -4.4839    -0.9769 H       
  33 H33            4.8514    -4.1830    -0.9667 H       
  34 H34            4.8457    -4.1970     0.8132 H       
  35 H35            3.8958    -6.4873     0.7923 H       
  36 H36            3.9014    -6.4734    -0.9876 H       
  37 H37            6.4954    -6.2625    -0.8972 H       
  38 H38            7.2926    -7.7186     0.8510 H       
  39 H39            4.4742    -7.1169     2.1528 H       
  40 H40            6.8191    -8.9127     2.9129 H       
  41 H41            4.0522    -8.1577     4.1117 H       
  42 H42            4.2161   -10.5268     3.2918 H       
  43 H43            5.5750   -10.7844     4.4122 H       
  44 H44            4.1114   -10.1906     6.3237 H       
  45 H45            2.7525    -9.9330     5.2033 H       
  46 H46            2.9070   -12.2974     4.4723 H       
  47 H47            4.2658   -12.5550     5.5928 H       
  48 H48            2.8023   -11.9612     7.5043 H       
  49 H49            1.4434   -11.7036     6.3838 H       
  50 H50            1.5979   -14.0680     5.6529 H       
  51 H51            2.9567   -14.3256     6.7733 H       
  52 H52            1.3356   -13.9583     7.4100 H       
  53 H53           -1.3530     2.9727    -0.0457 H       
  54 H54            5.8859    -6.7048     6.6144 H       
@<TRIPOS>BOND
   1    1    2 1
   2    1   19 2
   3    1   20 1
   4    2    3 1
   5    2   23 1
   6    2   24 1
   7    3    4 1
   8    3   25 1
   9    3   26 1
  10    4    5 1
  11    4   27 1
  12    4   28 1
  13    5    6 1
  14    5   29 1
  15    5   30 1
  16    6    7 1
  17    6   31 1
  18    6   32 1
  19    7    8 1
  20    7   33 1
  21    7   34 1
  22    8    9 1
  23    8   35 1
  24    8   36 1
  25    9   10 2
  26    9   37 1
  27   10   11 1
  28   10   38 1
  29   11   12 2
  30   11   39 1
  31   12   13 1
  32   12   40 1
  33   13   14 1
  34   13   21 1
  35   13   41 1
  36   14   15 1
  37   14   42 1
  38   14   43 1
  39   15   16 1
  40   15   44 1
  41   15   45 1
  42   16   17 1
  43   16   46 1
  44   16   47 1
  45   17   18 1
  46   17   48 1
  47   17   49 1
  48   18   50 1
  49   18   51 1
  50   18   52 1
  51   20   53 1
  52   21   22 1
  53   22   54 1

#	End of record

