#	Name: ASD03731484
#	Creating user name:	WinNT
#	Creation time:	15. 06. 2019 20:45

#	Modifying user name:	WinNT
#	Modification time:	15. 06. 2019 20:45

#	Program:	/corina/corina34_cracker 3.40 0067  02.08.2006

@<TRIPOS>MOLECULE
ASD03731484
  60   66    0    0    0
SMALL
NO_CHARGES


@<TRIPOS>ATOM
   1 N1            -0.0169     1.3981     0.0097 N.pl3   
   2 N2             0.0021    -0.0041     0.0020 N.2     
   3 N3             1.2202    -0.4173    -0.0118 N.2     
   4 C4             2.0702     0.6371    -0.0143 C.ar    
   5 C5             1.2924     1.8101    -0.0006 C.ar    
   6 C6             3.4639     0.7390    -0.0267 C.ar    
   7 C7             4.0594     1.9941    -0.0252 C.ar    
   8 C8             3.2683     3.1518    -0.0110 C.ar    
   9 C9             1.9085     3.0592    -0.0001 C.ar    
  10 C10            5.5320     2.1097    -0.0383 C.2     
  11 O11            6.2202     1.1076    -0.0502 O.2     
  12 N12            6.1125     3.3260    -0.0369 N.am    
  13 C13            7.5730     3.4405    -0.0498 C.3     
  14 C14            7.9687     4.9185    -0.0453 C.3     
  15 C15            9.4939     5.0381    -0.0588 C.3     
  16 O16            6.2231    11.0495     2.1448 O.3     
  17 C17            6.1885    12.4670     2.3952 C.3     
  18 O18            7.5042    12.7571     2.9028 O.3     
  19 C19            8.3221    11.8052     2.3645 C.ar    
  20 C20            7.5338    10.7550     1.8995 C.ar    
  21 C21            9.6978    11.7493     2.2306 C.ar    
  22 C22           10.3040    10.6476     1.6345 C.ar    
  23 C23            9.5066     9.6010     1.1814 C.ar    
  24 C24            8.1343     9.6565     1.3079 C.ar    
  25 O25           11.6239    10.4038     1.3921 O.3     
  26 C26           10.4406     8.5616     0.6216 C.3     
  27 C27           11.8116     8.9947     1.1583 C.3     
  28 N28            9.8728     6.4533    -0.0544 N.am    
  29 C29           10.0783     7.1738     1.0662 C.2     
  30 C30           10.4145     8.5186    -0.8775 C.ar    
  31 C31           10.6534     9.4530    -1.8603 C.ar    
  32 C32           10.5476     9.0989    -3.1936 C.ar    
  33 C33           10.2006     7.8047    -3.5365 C.ar    
  34 C34            9.9594     6.8655    -2.5557 C.ar    
  35 C35           10.0640     7.2129    -1.2111 C.ar    
  36 O36            9.9885     6.7786     2.2093 O.2     
  37 C37           -1.2039     2.2566     0.0203 C.3     
  38 H38            4.0741    -0.1521    -0.0369 H       
  39 H39            3.7397     4.1234    -0.0092 H       
  40 H40            1.3074     3.9564     0.0101 H       
  41 H41            5.5634     4.1255    -0.0273 H       
  42 H42            7.9836     2.9517     0.8337 H       
  43 H43            7.9671     2.9616    -0.9462 H       
  44 H44            7.5580     5.4073    -0.9288 H       
  45 H45            7.5746     5.3974     0.8511 H       
  46 H46            9.9046     4.5493     0.8247 H       
  47 H47            9.8880     4.5592    -0.9551 H       
  48 H48            6.0051    13.0148     1.4709 H       
  49 H49            5.4294    12.7058     3.1401 H       
  50 H50           10.3054    12.5662     2.5911 H       
  51 H51            7.5266     8.8408     0.9449 H       
  52 H52           12.5897     8.8261     0.4138 H       
  53 H53           12.0450     8.4758     2.0880 H       
  54 H54           10.9240    10.4631    -1.5902 H       
  55 H55           10.7357     9.8312    -3.9647 H       
  56 H56           10.1179     7.5284    -4.5773 H       
  57 H57            9.6884     5.8570    -2.8314 H       
  58 H58           -1.4930     2.4643     1.0505 H       
  59 H59           -0.9794     3.1933    -0.4900 H       
  60 H60           -2.0226     1.7511    -0.4919 H       
@<TRIPOS>BOND
   1    1    2 1
   2    1    5 1
   3    1   37 1
   4    2    3 2
   5    3    4 1
   6    4    5 ar
   7    4    6 ar
   8    5    9 ar
   9    6    7 ar
  10    6   38 1
  11    7    8 ar
  12    7   10 1
  13    8    9 ar
  14    8   39 1
  15    9   40 1
  16   10   11 2
  17   10   12 am
  18   12   13 1
  19   12   41 1
  20   13   14 1
  21   13   42 1
  22   13   43 1
  23   14   15 1
  24   14   44 1
  25   14   45 1
  26   15   28 1
  27   15   46 1
  28   15   47 1
  29   16   17 1
  30   16   20 1
  31   17   18 1
  32   17   48 1
  33   17   49 1
  34   18   19 1
  35   19   20 ar
  36   19   21 ar
  37   20   24 ar
  38   21   22 ar
  39   21   50 1
  40   22   23 ar
  41   22   25 1
  42   23   24 ar
  43   23   26 1
  44   24   51 1
  45   25   27 1
  46   26   27 1
  47   26   29 1
  48   26   30 1
  49   27   52 1
  50   27   53 1
  51   28   29 am
  52   28   35 1
  53   29   36 2
  54   30   31 ar
  55   30   35 ar
  56   31   32 ar
  57   31   54 1
  58   32   33 ar
  59   32   55 1
  60   33   34 ar
  61   33   56 1
  62   34   35 ar
  63   34   57 1
  64   37   58 1
  65   37   59 1
  66   37   60 1

#	End of record

