#	Name: ASD01230403
#	Creating user name:	WinNT
#	Creation time:	15. 06. 2019 19:14

#	Modifying user name:	WinNT
#	Modification time:	15. 06. 2019 19:14

#	Program:	/corina/corina34_cracker 3.40 0067  02.08.2006

@<TRIPOS>MOLECULE
ASD01230403
  40   42    0    0    0
SMALL
NO_CHARGES


@<TRIPOS>ATOM
   1 C1            -0.5903     1.9519    -0.1905 C.ar    
   2 C2            -0.4373     0.5837    -0.4567 C.ar    
   3 C3             0.8153     0.1095    -0.8450 C.ar    
   4 C4             1.8593     1.0156    -0.9514 C.ar    
   5 C5             1.6322     2.3491    -0.6727 C.ar    
   6 N6             0.4379     2.7759    -0.3067 N.ar    
   7 N7            -1.8302     2.4457     0.1920 N.pl3   
   8 C8            -1.5876    -0.3431    -0.3270 C.ar    
   9 C9            -1.8948    -1.2244    -1.3626 C.ar    
  10 C10           -2.9650    -2.0854    -1.2388 C.ar    
  11 C11           -3.7360    -2.0752    -0.0844 C.ar    
  12 C12           -3.4327    -1.1988     0.9487 C.ar    
  13 C13           -2.3606    -0.3390     0.8331 C.ar    
  14 O14           -4.7901    -2.9245     0.0345 O.3     
  15 C15           -4.9748    -3.8798    -1.0122 C.3     
  16 C16           -5.7380    -5.0897    -0.4695 C.3     
  17 C17           -5.9357    -6.1125    -1.5901 C.3     
  18 C18           -6.7346    -5.4740    -2.7282 C.3     
  19 C19           -5.9713    -4.2641    -3.2708 C.3     
  20 C20           -5.7736    -3.2414    -2.1502 C.3     
  21 H21            0.9686    -0.9383    -1.0575 H       
  22 H22            2.8421     0.6813    -1.2494 H       
  23 H23            2.4457     3.0547    -0.7553 H       
  24 H24           -2.5872     1.8449     0.2743 H       
  25 H25           -1.9395     3.3917     0.3769 H       
  26 H26           -1.2956    -1.2326    -2.2611 H       
  27 H27           -3.2037    -2.7681    -2.0409 H       
  28 H28           -4.0346    -1.1930     1.8454 H       
  29 H29           -2.1225     0.3394     1.6390 H       
  30 H30           -4.0028    -4.2013    -1.3863 H       
  31 H31           -5.1689    -5.5445     0.3413 H       
  32 H32           -6.7100    -4.7682    -0.0954 H       
  33 H33           -4.9637    -6.4340    -1.9643 H       
  34 H34           -6.4795    -6.9744    -1.2035 H       
  35 H35           -6.8754    -6.2027    -3.5265 H       
  36 H36           -7.7066    -5.1526    -2.3540 H       
  37 H37           -4.9993    -4.5856    -3.6450 H       
  38 H38           -6.5404    -3.8093    -4.0816 H       
  39 H39           -6.7456    -2.9199    -1.7761 H       
  40 H40           -5.2299    -2.3794    -2.5368 H       
@<TRIPOS>BOND
   1    1    2 ar
   2    1    6 ar
   3    1    7 1
   4    2    3 ar
   5    2    8 1
   6    3    4 ar
   7    3   21 1
   8    4    5 ar
   9    4   22 1
  10    5    6 ar
  11    5   23 1
  12    7   24 1
  13    7   25 1
  14    8    9 ar
  15    8   13 ar
  16    9   10 ar
  17    9   26 1
  18   10   11 ar
  19   10   27 1
  20   11   12 ar
  21   11   14 1
  22   12   13 ar
  23   12   28 1
  24   13   29 1
  25   14   15 1
  26   15   16 1
  27   15   20 1
  28   15   30 1
  29   16   17 1
  30   16   31 1
  31   16   32 1
  32   17   18 1
  33   17   33 1
  34   17   34 1
  35   18   19 1
  36   18   35 1
  37   18   36 1
  38   19   20 1
  39   19   37 1
  40   19   38 1
  41   20   39 1
  42   20   40 1

#	End of record

