#	Name: ASD07301012
#	Creating user name:	WinNT
#	Creation time:	15. 06. 2019 21:10

#	Modifying user name:	WinNT
#	Modification time:	15. 06. 2019 21:10

#	Program:	/corina/corina34_cracker 3.40 0067  02.08.2006

@<TRIPOS>MOLECULE
ASD07301012
  28   29    0    0    0
SMALL
NO_CHARGES


@<TRIPOS>ATOM
   1 N1            -0.0169     1.3969     0.0097 N.pl3   
   2 C2             0.0021    -0.0041     0.0020 C.ar    
   3 C3             1.2155    -0.6835    -0.0132 C.ar    
   4 C4             1.2323    -2.0658    -0.0208 C.ar    
   5 C5             0.0393    -2.7740    -0.0133 C.ar    
   6 C6            -1.1703    -2.0964     0.0019 C.ar    
   7 C7            -1.1895    -0.7146     0.0153 C.ar    
   8 F8             2.3768     0.0068    -0.0210 F       
   9 O9             0.0564    -4.1338    -0.0213 O.3     
  10 C10           -1.2086    -4.7986    -0.0128 C.3     
  11 C11           -0.9924    -6.2899    -0.0234 C.ar    
  12 C12           -0.8817    -6.9808     1.1688 C.ar    
  13 C13           -0.6833    -8.3488     1.1590 C.ar    
  14 C14           -0.5962    -9.0260    -0.0430 C.ar    
  15 C15           -0.7079    -8.3353    -1.2352 C.ar    
  16 C16           -0.9106    -6.9679    -1.2253 C.ar    
  17 H17            0.8164     1.8932     0.0044 H       
  18 H18           -0.8635     1.8704     0.0163 H       
  19 H19            2.1740    -2.5943    -0.0330 H       
  20 H20           -2.0982    -2.6490     0.0077 H       
  21 H21           -2.1321    -0.1878     0.0320 H       
  22 H22           -1.7605    -4.5178     0.8842 H       
  23 H23           -1.7778    -4.5076    -0.8956 H       
  24 H24           -0.9497    -6.4517     2.1078 H       
  25 H25           -0.5961    -8.8885     2.0904 H       
  26 H26           -0.4406   -10.0947    -0.0506 H       
  27 H27           -0.6396    -8.8643    -2.1742 H       
  28 H28           -1.0015    -6.4288    -2.1567 H       
@<TRIPOS>BOND
   1    1    2 1
   2    1   17 1
   3    1   18 1
   4    2    3 ar
   5    2    7 ar
   6    3    4 ar
   7    3    8 1
   8    4    5 ar
   9    4   19 1
  10    5    6 ar
  11    5    9 1
  12    6    7 ar
  13    6   20 1
  14    7   21 1
  15    9   10 1
  16   10   11 1
  17   10   22 1
  18   10   23 1
  19   11   12 ar
  20   11   16 ar
  21   12   13 ar
  22   12   24 1
  23   13   14 ar
  24   13   25 1
  25   14   15 ar
  26   14   26 1
  27   15   16 ar
  28   15   27 1
  29   16   28 1

#	End of record

