#	Name: ASD00842625
#	Creating user name:	WinNT
#	Creation time:	15. 06. 2019 18:44

#	Modifying user name:	WinNT
#	Modification time:	15. 06. 2019 18:44

#	Program:	/corina/corina34_cracker 3.40 0067  02.08.2006

@<TRIPOS>MOLECULE
ASD00842625
  87   92    0    0    0
SMALL
NO_CHARGES


@<TRIPOS>ATOM
   1 C1            -0.0167     1.3829     0.0096 C.ar    
   2 C2             0.0021    -0.0041     0.0020 C.ar    
   3 C3             1.2143    -0.6791    -0.0132 C.ar    
   4 C4             2.3989     0.0312    -0.0207 C.ar    
   5 C5             2.3774     1.4139    -0.0126 C.ar    
   6 C6             1.1710     2.0888     0.0021 C.ar    
   7 C7             1.2384    -2.1858    -0.0210 C.3     
   8 C8             0.4954    -2.7217    -1.2260 C.2     
   9 O9             2.6067    -2.6714    -0.0100 O.3     
  10 C10            3.3978    -2.2930    -1.0317 C.2     
  11 N11            4.6788    -2.7088    -1.0818 N.am    
  12 O12            2.9568    -1.5767    -1.9085 O.2     
  13 C13            5.5543    -2.3043    -2.1903 C.3     
  14 C14            6.1658    -3.5603    -2.8192 C.3     
  15 C15            6.8652    -4.3809    -1.7331 C.3     
  16 C16            5.8417    -4.8164    -0.6819 C.3     
  17 C17            5.2282    -3.5702    -0.0259 C.3     
  18 N18            7.4812    -5.5694    -2.3382 N.3     
  19 C19            8.2628    -6.3204    -1.3459 C.3     
  20 C20            8.8209    -7.5895    -1.9944 C.3     
  21 N21            9.6539    -7.2214    -3.1477 N.3     
  22 C22            8.8723    -6.4703    -4.1400 C.3     
  23 C23            8.3143    -5.2013    -3.4915 C.3     
  24 C24           10.2700    -8.4098    -3.7528 C.3     
  25 O25            0.7746    -2.5253    -2.3899 O.2     
  26 N26           -0.5308    -3.4561    -0.7651 N.am    
  27 C27            0.4695    -2.7339     1.1599 C.ar    
  28 C28           -0.5756    -3.4845     0.6309 C.ar    
  29 C29            0.6380    -2.6099     2.5214 C.ar    
  30 C30           -1.2967    -3.9942     2.8754 C.ar    
  31 C31           -1.4611    -4.1165     1.4959 C.ar    
  32 C32           -0.9803    -5.8518    -2.0430 C.ar    
  33 C33           -1.3050    -6.8930    -1.1932 C.ar    
  34 C34           -0.1607    -6.0764    -3.1337 C.ar    
  35 C35            0.3359    -7.3423    -3.3769 C.ar    
  36 C36            0.0116    -8.3887    -2.5257 C.ar    
  37 C37           -0.8106    -8.1607    -1.4318 C.ar    
  38 O38            0.4985    -9.6351    -2.7631 O.3     
  39 H39           -1.9454    -6.7150    -0.3420 H       
  40 C40            0.1231   -10.6640    -1.8451 C.3     
  41 C41           -0.2388    -3.2373     3.3892 C.ar    
  42 F42           -0.0749    -3.1176     4.7249 F       
  43 C43           -2.2100    -4.6452     3.7657 C.1     
  44 N44           -2.9345    -5.1616     4.4721 N.1     
  45 O45           -1.1648    -0.7006     0.0099 O.3     
  46 C46           -3.5740    -0.8895     0.0328 C.3     
  47 C47           -2.3744     0.0601     0.0260 C.3     
  48 S48           -1.6180    -4.2375    -1.7397 S.o2    
  49 O49           -2.7976    -4.4107    -0.9667 O.2     
  50 O50           -1.5992    -3.5577    -2.9874 O.2     
  51 H51           -0.9590     1.9106     0.0170 H       
  52 H52            3.3426    -0.4937    -0.0325 H       
  53 H53            3.3047     1.9675    -0.0178 H       
  54 H54            1.1569     3.1687     0.0084 H       
  55 H55            4.9717    -1.7675    -2.9389 H       
  56 H56            6.3489    -1.6610    -1.8123 H       
  57 H57            5.3778    -4.1586    -3.2765 H       
  58 H58            6.8909    -3.2702    -3.5796 H       
  59 H59            7.6365    -3.7737    -1.2593 H       
  60 H60            5.0568    -5.4030    -1.1594 H       
  61 H61            6.3362    -5.4205     0.0789 H       
  62 H62            5.9977    -3.0326     0.5282 H       
  63 H63            4.4290    -3.8700     0.6520 H       
  64 H64            9.0864    -5.7024    -0.9883 H       
  65 H65            7.6212    -6.5923    -0.5077 H       
  66 H66            9.4249    -8.1335    -1.2683 H       
  67 H67            7.9967    -8.2202    -2.3277 H       
  68 H68            9.5140    -6.1984    -4.9782 H       
  69 H69            8.0488    -7.0883    -4.4976 H       
  70 H70            7.7102    -4.6573    -4.2176 H       
  71 H71            9.1385    -4.5706    -3.1583 H       
  72 H72            9.4894    -9.0923    -4.0891 H       
  73 H73           10.8809    -8.1089    -4.6039 H       
  74 H74           10.8966    -8.9100    -3.0145 H       
  75 H75            1.4558    -2.0226     2.9122 H       
  76 H76           -2.2780    -4.7011     1.0995 H       
  77 H77            0.0912    -5.2615    -3.7962 H       
  78 H78            0.9758    -7.5174    -4.2292 H       
  79 H79           -1.0648    -8.9737    -0.7679 H       
  80 H80            0.4664   -10.4011    -0.8445 H       
  81 H81           -0.9618   -10.7692    -1.8412 H       
  82 H82            0.5785   -11.6063    -2.1496 H       
  83 H83           -4.4966    -0.3093     0.0451 H       
  84 H84           -3.5489    -1.5131    -0.8609 H       
  85 H85           -3.5312    -1.5227     0.9190 H       
  86 H86           -2.3995     0.6837     0.9196 H       
  87 H87           -2.4172     0.6932    -0.8603 H       
@<TRIPOS>BOND
   1    1    2 ar
   2    1    6 ar
   3    1   51 1
   4    2    3 ar
   5    2   45 1
   6    3    4 ar
   7    3    7 1
   8    4    5 ar
   9    4   52 1
  10    5    6 ar
  11    5   53 1
  12    6   54 1
  13    7    8 1
  14    7    9 1
  15    7   27 1
  16    8   25 2
  17    8   26 am
  18    9   10 1
  19   10   11 am
  20   10   12 2
  21   11   13 1
  22   11   17 1
  23   13   14 1
  24   13   55 1
  25   13   56 1
  26   14   15 1
  27   14   57 1
  28   14   58 1
  29   15   16 1
  30   15   18 1
  31   15   59 1
  32   16   17 1
  33   16   60 1
  34   16   61 1
  35   17   62 1
  36   17   63 1
  37   18   19 1
  38   18   23 1
  39   19   20 1
  40   19   64 1
  41   19   65 1
  42   20   21 1
  43   20   66 1
  44   20   67 1
  45   21   22 1
  46   21   24 1
  47   22   23 1
  48   22   68 1
  49   22   69 1
  50   23   70 1
  51   23   71 1
  52   24   72 1
  53   24   73 1
  54   24   74 1
  55   26   48 am
  56   26   28 1
  57   27   28 ar
  58   27   29 ar
  59   28   31 ar
  60   29   41 ar
  61   29   75 1
  62   30   31 ar
  63   30   43 1
  64   30   41 ar
  65   31   76 1
  66   32   33 ar
  67   32   34 ar
  68   32   48 1
  69   33   39 1
  70   33   37 ar
  71   34   35 ar
  72   34   77 1
  73   35   36 ar
  74   35   78 1
  75   36   37 ar
  76   36   38 1
  77   37   79 1
  78   38   40 1
  79   40   80 1
  80   40   81 1
  81   40   82 1
  82   41   42 1
  83   43   44 3
  84   45   47 1
  85   46   47 1
  86   46   83 1
  87   46   84 1
  88   46   85 1
  89   47   86 1
  90   47   87 1
  91   48   49 2
  92   48   50 2

#	End of record

