#	Name: ASD04930094
#	Creating user name:	WinNT
#	Creation time:	15. 06. 2019 20:56

#	Modifying user name:	WinNT
#	Modification time:	15. 06. 2019 20:56

#	Program:	/corina/corina34_cracker 3.40 0067  02.08.2006

@<TRIPOS>MOLECULE
ASD04930094
  54   55    0    0    0
SMALL
NO_CHARGES


@<TRIPOS>ATOM
   1 N1             1.2811     1.2307    -1.7115 N.am    
   2 C2             1.3158    -0.1067    -1.5854 C.2     
   3 C3             1.2179    -0.7395    -0.2710 C.2     
   4 C4             1.0872     0.0672     0.8624 C.2     
   5 C5             1.0542     1.5214     0.6797 C.ar    
   6 C6             0.9242     2.3748     1.7821 C.ar    
   7 C7             0.8946     3.7268     1.5949 C.ar    
   8 C8             0.9926     4.2636     0.3169 C.ar    
   9 C9             1.1212     3.4411    -0.7829 C.ar    
  10 C10            1.1531     2.0597    -0.6159 C.ar    
  11 C11            1.2558    -2.2014    -0.1439 C.2     
  12 O12            2.3137    -2.7938    -0.2469 O.2     
  13 N13            0.1190    -2.8875     0.0870 N.am    
  14 N14           -1.0806    -2.1998     0.3130 N.am    
  15 O15            1.4300    -0.8012    -2.5797 O.2     
  16 C16           -2.0098    -2.1278    -0.6606 C.2     
  17 C17           -3.3001    -1.3882    -0.4174 C.3     
  18 C18           -4.1721    -1.4576    -1.6727 C.3     
  19 C19           -5.4820    -0.7066    -1.4259 C.3     
  20 C20           -6.3540    -0.7761    -2.6812 C.3     
  21 C21           -7.6640    -0.0251    -2.4343 C.3     
  22 C22           -8.5360    -0.0946    -3.6896 C.3     
  23 C23           -9.8460     0.6564    -3.4428 C.3     
  24 O24           -1.8076    -2.6583    -1.7323 O.2     
  25 O25            0.9935    -0.4782     2.0931 O.3     
  26 Cl26           0.9521     5.9859     0.1025 Cl      
  27 C27            0.1375    -4.3523     0.1016 C.3     
  28 C28            0.4208    -4.8446     1.5222 C.3     
  29 H29            1.3519     1.6238    -2.5954 H       
  30 H30            0.8473     1.9644     2.7781 H       
  31 H31            0.7940     4.3838     2.4461 H       
  32 H32            1.1962     3.8683    -1.7719 H       
  33 H33           -1.2423    -1.7756     1.1702 H       
  34 H34           -3.8293    -1.8458     0.4184 H       
  35 H35           -3.0829    -0.3460    -0.1831 H       
  36 H36           -3.6428    -1.0000    -2.5085 H       
  37 H37           -4.3893    -2.4997    -1.9070 H       
  38 H38           -6.0113    -1.1643    -0.5901 H       
  39 H39           -5.2648     0.3355    -1.1916 H       
  40 H40           -5.8248    -0.3184    -3.5170 H       
  41 H41           -6.5712    -1.8182    -2.9155 H       
  42 H42           -8.1932    -0.4828    -1.5985 H       
  43 H43           -7.4468     1.0170    -2.2000 H       
  44 H44           -8.0068     0.3631    -4.5254 H       
  45 H45           -8.7532    -1.1367    -3.9239 H       
  46 H46          -10.3752     0.1987    -2.6070 H       
  47 H47           -9.6288     1.6985    -3.2085 H       
  48 H48          -10.4672     0.6069    -4.3370 H       
  49 H49            0.9489    -1.4442     2.0929 H       
  50 H50           -0.8298    -4.7312    -0.2282 H       
  51 H51            0.9169    -4.7125    -0.5700 H       
  52 H52            1.3882    -4.4657     1.8519 H       
  53 H53           -0.3586    -4.4844     2.1937 H       
  54 H54            0.4346    -5.9345     1.5331 H       
@<TRIPOS>BOND
   1    1    2 am
   2    1   10 1
   3    1   29 1
   4    2    3 1
   5    2   15 2
   6    3    4 2
   7    3   11 1
   8    4    5 1
   9    4   25 1
  10    5    6 ar
  11    5   10 ar
  12    6    7 ar
  13    6   30 1
  14    7    8 ar
  15    7   31 1
  16    8    9 ar
  17    8   26 1
  18    9   10 ar
  19    9   32 1
  20   11   12 2
  21   11   13 am
  22   13   14 1
  23   13   27 1
  24   14   16 am
  25   14   33 1
  26   16   17 1
  27   16   24 2
  28   17   18 1
  29   17   34 1
  30   17   35 1
  31   18   19 1
  32   18   36 1
  33   18   37 1
  34   19   20 1
  35   19   38 1
  36   19   39 1
  37   20   21 1
  38   20   40 1
  39   20   41 1
  40   21   22 1
  41   21   42 1
  42   21   43 1
  43   22   23 1
  44   22   44 1
  45   22   45 1
  46   23   46 1
  47   23   47 1
  48   23   48 1
  49   25   49 1
  50   27   28 1
  51   27   50 1
  52   27   51 1
  53   28   52 1
  54   28   53 1
  55   28   54 1

#	End of record

