#	Name: ASD01816017
#	Creating user name:	WinNT
#	Creation time:	15. 06. 2019 19:34

#	Modifying user name:	WinNT
#	Modification time:	15. 06. 2019 19:34

#	Program:	/corina/corina34_cracker 3.40 0067  02.08.2006

@<TRIPOS>MOLECULE
ASD01816017
  48   53    0    0    0
SMALL
NO_CHARGES


@<TRIPOS>ATOM
   1 C1            -0.0167     1.3813     0.0096 C.ar    
   2 C2             0.0021    -0.0041     0.0020 C.ar    
   3 C3             1.1985    -0.6908    -0.0127 C.ar    
   4 C4             2.4014     0.0060    -0.0204 C.ar    
   5 C5             2.3791     1.4105    -0.0132 C.ar    
   6 C6             1.1663     2.0916     0.0022 C.ar    
   7 N7             3.6066    -0.6779    -0.0347 N.pl3   
   8 C8             4.7997    -0.0569    -0.0428 C.2     
   9 C9             4.9005     1.3120    -0.0368 C.2     
  10 C10            3.6669     2.1305    -0.0217 C.2     
  11 C11            5.9969     2.2761    -0.0422 C.2     
  12 N12            5.4230     3.4985    -0.0312 N.am    
  13 N13            4.0309     3.3809    -0.0190 N.2     
  14 C14            6.1236     4.7114    -0.0310 C.ar    
  15 O15            7.1915     2.0273    -0.0540 O.2     
  16 C16            3.5813    -2.0733    -0.0405 C.ar    
  17 C17            6.5521     5.2677    -1.2287 C.ar    
  18 C18            7.2424     6.4642    -1.2255 C.ar    
  19 C19            7.5078     7.1089    -0.0312 C.ar    
  20 C20            7.0837     6.5589     1.1644 C.ar    
  21 C21            6.3866     5.3643     1.1685 C.ar    
  22 F22            5.9717     4.8270     2.3365 F       
  23 C23            3.5576    -2.7634    -1.2337 C.ar    
  24 C24            3.5317    -4.1548    -1.2507 C.ar    
  25 C25            3.5296    -4.8719    -0.0934 C.ar    
  26 C26            3.5539    -4.2066     1.1449 C.ar    
  27 C27            3.5857    -2.7906     1.1751 C.ar    
  28 C28            3.5529    -4.9216     2.3541 C.ar    
  29 C29            3.5773    -4.2436     3.5396 C.ar    
  30 C30            3.6032    -2.8460     3.5657 C.ar    
  31 C31            3.6103    -2.1257     2.4114 C.ar    
  32 O32            3.5759    -4.9363     4.7086 O.3     
  33 H33           -0.9602     1.9068     0.0170 H       
  34 H34           -0.9288    -0.5516     0.0080 H       
  35 H35            1.2006    -1.7708    -0.0178 H       
  36 H36            1.1507     3.1715     0.0081 H       
  37 H37            5.7018    -0.6507    -0.0538 H       
  38 H38            6.3463     4.7651    -2.1622 H       
  39 H39            7.5756     6.8967    -2.1573 H       
  40 H40            8.0481     8.0440    -0.0323 H       
  41 H41            7.2929     7.0648     2.0954 H       
  42 H42            3.5587    -2.2181    -2.1660 H       
  43 H43            3.5126    -4.6742    -2.1974 H       
  44 H44            3.5090    -5.9512    -0.1266 H       
  45 H45            3.5326    -6.0014     2.3464 H       
  46 H46            3.6218    -2.3312     4.5149 H       
  47 H47            3.6308    -1.0464     2.4461 H       
  48 H48            4.4587    -5.1534     5.0383 H       
@<TRIPOS>BOND
   1    1    2 ar
   2    1    6 ar
   3    1   33 1
   4    2    3 ar
   5    2   34 1
   6    3    4 ar
   7    3   35 1
   8    4    5 ar
   9    4    7 1
  10    5    6 ar
  11    5   10 1
  12    6   36 1
  13    7    8 1
  14    7   16 1
  15    8    9 2
  16    8   37 1
  17    9   10 1
  18    9   11 1
  19   10   13 2
  20   11   12 am
  21   11   15 2
  22   12   13 1
  23   12   14 1
  24   14   17 ar
  25   14   21 ar
  26   16   23 ar
  27   16   27 ar
  28   17   18 ar
  29   17   38 1
  30   18   19 ar
  31   18   39 1
  32   19   20 ar
  33   19   40 1
  34   20   21 ar
  35   20   41 1
  36   21   22 1
  37   23   24 ar
  38   23   42 1
  39   24   25 ar
  40   24   43 1
  41   25   26 ar
  42   25   44 1
  43   26   27 ar
  44   26   28 ar
  45   27   31 ar
  46   28   29 ar
  47   28   45 1
  48   29   30 ar
  49   29   32 1
  50   30   31 ar
  51   30   46 1
  52   31   47 1
  53   32   48 1

#	End of record

