#	Name: ASD03091450
#	Creating user name:	WinNT
#	Creation time:	15. 06. 2019 20:30

#	Modifying user name:	WinNT
#	Modification time:	15. 06. 2019 20:30

#	Program:	/corina/corina34_cracker 3.40 0067  02.08.2006

@<TRIPOS>MOLECULE
ASD03091450
  30   32    0    0    0
SMALL
NO_CHARGES


@<TRIPOS>ATOM
   1 C1             0.0299     1.6834    -0.0384 C.3     
   2 C2            -0.0042     0.1548    -0.0960 C.3     
   3 N3             0.6567    -0.3961     1.0941 N.3     
   4 C4            -0.0411     0.0060     2.3220 C.3     
   5 C5            -0.0087     1.5300     2.4536 C.3     
   6 C6             1.4476     2.0021     2.5215 C.3     
   7 N7             2.1052     1.6895     1.2454 N.am    
   8 C8             1.4868     2.1570    -0.0027 C.3     
   9 C9            -0.6836     2.1588     1.2309 C.3     
  10 C10            3.2546     0.9861     1.2201 C.2     
  11 O11            3.8148     0.6991     2.2606 O.2     
  12 S12            5.4063    -0.1951    -0.3047 S.3     
  13 C13            3.8323     0.5650    -0.0680 C.2     
  14 N14            3.2707     0.6868    -1.2426 N.2     
  15 N15            3.9367     0.2602    -2.2268 N.2     
  16 C16            5.1049    -0.2549    -1.9896 C.2     
  17 H17           -0.4660     2.0933    -0.9183 H       
  18 H18           -1.0396    -0.1845    -0.1262 H       
  19 H19            0.5158    -0.1866    -0.9910 H       
  20 H20            0.7321    -1.4005     1.0334 H       
  21 H21           -1.0762    -0.3328     2.2790 H       
  22 H22            0.4523    -0.4435     3.1838 H       
  23 H23           -0.5325     1.8295     3.3614 H       
  24 H24            1.4754     3.0782     2.6930 H       
  25 H25            1.9613     1.4871     3.3333 H       
  26 H26            2.0264     1.7440    -0.8549 H       
  27 H27            1.5182     3.2459    -0.0405 H       
  28 H28           -0.6211     3.2449     1.2987 H       
  29 H29           -1.7298     1.8550     1.1960 H       
  30 H30            5.7769    -0.6561    -2.7338 H       
@<TRIPOS>BOND
   1    1    2 1
   2    1    8 1
   3    1    9 1
   4    1   17 1
   5    2    3 1
   6    2   18 1
   7    2   19 1
   8    3    4 1
   9    3   20 1
  10    4    5 1
  11    4   21 1
  12    4   22 1
  13    5    6 1
  14    5    9 1
  15    5   23 1
  16    6    7 1
  17    6   24 1
  18    6   25 1
  19    7    8 1
  20    7   10 am
  21    8   26 1
  22    8   27 1
  23    9   28 1
  24    9   29 1
  25   10   11 2
  26   10   13 1
  27   12   13 1
  28   12   16 1
  29   13   14 2
  30   14   15 1
  31   15   16 2
  32   16   30 1

#	End of record

