#	Name: ASD04882601
#	Creating user name:	WinNT
#	Creation time:	15. 06. 2019 20:55

#	Modifying user name:	WinNT
#	Modification time:	15. 06. 2019 20:55

#	Program:	/corina/corina34_cracker 3.40 0067  02.08.2006

@<TRIPOS>MOLECULE
ASD04882601
  75   80    0    0    0
SMALL
NO_CHARGES


@<TRIPOS>ATOM
   1 C1            -0.0215     1.4013    -0.0093 C.ar    
   2 C2            -0.0116     0.0036    -0.0051 C.ar    
   3 C3            -1.2094    -0.7019    -0.0164 C.ar    
   4 C4            -2.4097    -0.0268    -0.0317 C.ar    
   5 C5            -2.4268     1.3708    -0.0363 C.ar    
   6 C6            -1.2240     2.0826    -0.0188 C.ar    
   7 N7             1.1997    -0.6831     0.0098 N.3     
   8 C8             1.3068    -1.5361     1.2016 C.3     
   9 C9             1.3723    -1.4733    -1.2172 C.3     
  10 C10            2.7462    -2.1475    -1.1975 C.3     
  11 N11            2.8533    -3.0006    -0.0057 N.3     
  12 C12            2.6807    -2.2104     1.2213 C.3     
  13 C13           -3.7127     2.0937    -0.0531 C.2     
  14 O14           -3.7266     3.3096    -0.0572 O.2     
  15 N15           -4.8720     1.4065    -0.0640 N.am    
  16 N16            1.1864     2.1110     0.0021 N.am    
  17 C17            4.0629    -3.6863     0.0092 C.ar    
  18 C18            4.3638    -4.5532     1.0591 C.ar    
  19 C19            5.5825    -5.2126     1.0270 C.ar    
  20 C20            6.4274    -4.9699    -0.0468 C.ar    
  21 N21            6.0622    -4.1327    -0.9972 N.ar    
  22 N22            4.9328    -3.5232    -0.9770 N.ar    
  23 C23            1.2294     3.3599     0.5068 C.2     
  24 C24            2.5098     4.0698     0.5995 C.2     
  25 C25            3.7311     3.5988     0.2174 C.2     
  26 N26            4.6277     4.5576     0.4707 N.2     
  27 C27            4.0138     5.5881     0.9875 C.2     
  28 O28            2.7069     5.3214     1.0755 O.3     
  29 O29            0.2060     3.8988     0.8855 O.2     
  30 C30            4.6731     6.8751     1.4119 C.3     
  31 C31            5.7520     6.7929     2.4936 C.3     
  32 C32            6.1445     7.0708     1.0411 C.3     
  33 C33           -6.1490     2.1244    -0.0807 C.3     
  34 C34           -7.3004     1.1169    -0.0905 C.3     
  35 C35           -8.6340     1.8666    -0.1079 C.3     
  36 N36           -9.7364     0.9019    -0.1173 N.am    
  37 C37          -10.3200     0.4063     0.9876 C.2     
  38 C38          -11.4126    -0.5682     0.6064 C.3     
  39 C39          -11.1236    -0.9011    -0.8757 C.3     
  40 C40          -10.3498     0.3571    -1.3342 C.3     
  41 O41          -10.0148     0.6978     2.1246 O.2     
  42 H42           -1.1986    -1.7818    -0.0136 H       
  43 H43           -3.3385    -0.5777    -0.0404 H       
  44 H44           -1.2341     3.1625    -0.0223 H       
  45 H45            1.1882    -0.9263     2.0972 H       
  46 H46            0.5281    -2.2983     1.1745 H       
  47 H47            0.5943    -2.2347    -1.2718 H       
  48 H48            1.3015    -0.8175    -2.0850 H       
  49 H49            2.8648    -2.7574    -2.0931 H       
  50 H50            3.5250    -1.3854    -1.1704 H       
  51 H51            3.4587    -1.4489     1.2759 H       
  52 H52            2.7516    -2.8661     2.0891 H       
  53 H53           -4.8609     0.4366    -0.0608 H       
  54 H54            1.9917     1.7034    -0.3533 H       
  55 H55            3.6692    -4.7057     1.8720 H       
  56 H56            5.8663    -5.8949     1.8146 H       
  57 H57            7.3846    -5.4669    -0.1036 H       
  58 H58            3.9364     2.6290    -0.2113 H       
  59 H59            4.0311     7.7560     1.4073 H       
  60 H60            5.8201     7.6199     3.2003 H       
  61 H61            5.9850     5.8080     2.8982 H       
  62 H62            6.6357     6.2687     0.4902 H       
  63 H63            6.4708     8.0807     0.7923 H       
  64 H64           -6.2239     2.7532     0.8065 H       
  65 H65           -6.2038     2.7475    -0.9734 H       
  66 H66           -7.2254     0.4881    -0.9777 H       
  67 H67           -7.2455     0.4938     0.8022 H       
  68 H68           -8.7089     2.4954     0.7793 H       
  69 H69           -8.6888     2.4897    -1.0006 H       
  70 H70          -11.3516    -1.4681     1.2184 H       
  71 H71          -12.3924    -0.1018     0.7086 H       
  72 H72          -10.5071    -1.7959    -0.9615 H       
  73 H73          -12.0505    -1.0123    -1.4384 H       
  74 H74          -11.0347     1.0812    -1.7754 H       
  75 H75           -9.5758     0.0834    -2.0512 H       
@<TRIPOS>BOND
   1    1    2 ar
   2    1   16 1
   3    1    6 ar
   4    2    3 ar
   5    2    7 1
   6    3    4 ar
   7    3   42 1
   8    4    5 ar
   9    4   43 1
  10    5    6 ar
  11    5   13 1
  12    6   44 1
  13    7    8 1
  14    7    9 1
  15    8   12 1
  16    8   45 1
  17    8   46 1
  18    9   10 1
  19    9   47 1
  20    9   48 1
  21   10   11 1
  22   10   49 1
  23   10   50 1
  24   11   12 1
  25   11   17 1
  26   12   51 1
  27   12   52 1
  28   13   14 2
  29   13   15 am
  30   15   33 1
  31   15   53 1
  32   16   23 am
  33   16   54 1
  34   17   18 ar
  35   17   22 ar
  36   18   19 ar
  37   18   55 1
  38   19   20 ar
  39   19   56 1
  40   20   21 ar
  41   20   57 1
  42   21   22 ar
  43   23   24 1
  44   23   29 2
  45   24   25 2
  46   24   28 1
  47   25   26 1
  48   25   58 1
  49   26   27 2
  50   27   28 1
  51   27   30 1
  52   30   31 1
  53   30   32 1
  54   30   59 1
  55   31   32 1
  56   31   60 1
  57   31   61 1
  58   32   62 1
  59   32   63 1
  60   33   34 1
  61   33   64 1
  62   33   65 1
  63   34   35 1
  64   34   66 1
  65   34   67 1
  66   35   36 1
  67   35   68 1
  68   35   69 1
  69   36   37 am
  70   36   40 1
  71   37   38 1
  72   37   41 2
  73   38   39 1
  74   38   70 1
  75   38   71 1
  76   39   40 1
  77   39   72 1
  78   39   73 1
  79   40   74 1
  80   40   75 1

#	End of record

