#	Name: ASD07480017
#	Creating user name:	WinNT
#	Creation time:	15. 06. 2019 21:11

#	Modifying user name:	WinNT
#	Modification time:	15. 06. 2019 21:11

#	Program:	/corina/corina34_cracker 3.40 0067  02.08.2006

@<TRIPOS>MOLECULE
ASD07480017
  53   56    0    0    0
SMALL
NO_CHARGES


@<TRIPOS>ATOM
   1 C1            -4.3264    -6.3649     2.5660 C.ar    
   2 C2            -3.2482    -5.4980     2.5836 C.ar    
   3 C3            -3.3613    -4.2414     2.0188 C.ar    
   4 C4            -4.5589    -3.8499     1.4334 C.ar    
   5 C5            -5.6388    -4.7224     1.4175 C.ar    
   6 C6            -5.5185    -5.9789     1.9783 C.ar    
   7 Cl7           -4.1815    -7.9424     3.2761 Cl      
   8 Cl8           -2.0085    -3.1536     2.0415 Cl      
   9 N9            -4.6768    -2.5773     0.8607 N.am    
  10 C10           -5.8808    -1.9748     0.7995 C.2     
  11 N11           -5.9825    -0.7193     0.3201 N.am    
  12 O12           -6.8753    -2.5639     1.1767 O.2     
  13 C13           -7.2428    -0.1340     0.1527 C.ar    
  14 C14           -7.3973     1.2385     0.3059 C.ar    
  15 C15           -8.3357    -0.9227    -0.1714 C.ar    
  16 C16           -9.5896    -0.3346    -0.3371 C.ar    
  17 C17           -9.7354     1.0447    -0.1753 C.ar    
  18 C18           -8.6403     1.8216     0.1421 C.ar    
  19 C19          -10.7605    -1.1690    -0.6834 C.2     
  20 C20          -12.0490    -0.5372    -0.9769 C.2     
  21 O21          -10.6535    -2.3811    -0.7246 O.2     
  22 C22          -12.4171     0.1100    -2.1658 C.2     
  23 C23          -13.1726    -0.4634    -0.1199 C.2     
  24 C24          -14.1469     0.2012    -0.7773 C.2     
  25 N25          -13.7046     0.5529    -2.0124 N.pl3   
  26 N26          -14.3018     1.2429    -3.0778 N.2     
  27 C27          -13.6321     1.4493    -4.1813 C.2     
  28 N28          -12.3834     1.0238    -4.3406 N.2     
  29 C29          -11.7524     0.3621    -3.3843 C.2     
  30 N30          -10.4539    -0.0699    -3.5738 N.pl3   
  31 C31          -15.5168     0.5030    -0.2265 C.3     
  32 C32          -15.9754    -0.6547     0.6625 C.3     
  33 C33          -15.4623     1.7897     0.5995 C.3     
  34 H34           -2.3178    -5.8031     3.0392 H       
  35 H35           -6.5709    -4.4203     0.9634 H       
  36 H36           -6.3583    -6.6578     1.9657 H       
  37 H37           -3.8919    -2.1295     0.5082 H       
  38 H38           -5.1822    -0.2213     0.0910 H       
  39 H39           -6.5437     1.8517     0.5541 H       
  40 H40           -8.2166    -1.9889    -0.2956 H       
  41 H41          -10.7046     1.5040    -0.3028 H       
  42 H42           -8.7551     2.8881     0.2672 H       
  43 H43          -13.2390    -0.8664     0.8799 H       
  44 H44          -14.1095     1.9826    -4.9901 H       
  45 H45           -9.9724     0.1792    -4.3782 H       
  46 H46          -10.0238    -0.6224    -2.9025 H       
  47 H47          -16.2197     0.6293    -1.0499 H       
  48 H48          -15.2724    -0.7810     1.4859 H       
  49 H49          -16.9662    -0.4365     1.0609 H       
  50 H50          -16.0142    -1.5714     0.0741 H       
  51 H51          -16.4531     2.0080     0.9979 H       
  52 H52          -14.7593     1.6634     1.4229 H       
  53 H53          -15.1355     2.6144    -0.0339 H       
@<TRIPOS>BOND
   1    1    2 ar
   2    1    7 1
   3    1    6 ar
   4    2    3 ar
   5    2   34 1
   6    3    4 ar
   7    3    8 1
   8    4    5 ar
   9    4    9 1
  10    5    6 ar
  11    5   35 1
  12    6   36 1
  13    9   10 am
  14    9   37 1
  15   10   11 am
  16   10   12 2
  17   11   13 1
  18   11   38 1
  19   13   14 ar
  20   13   15 ar
  21   14   18 ar
  22   14   39 1
  23   15   16 ar
  24   15   40 1
  25   16   17 ar
  26   16   19 1
  27   17   18 ar
  28   17   41 1
  29   18   42 1
  30   19   20 1
  31   19   21 2
  32   20   22 2
  33   20   23 1
  34   22   25 1
  35   22   29 1
  36   23   24 2
  37   23   43 1
  38   24   25 1
  39   24   31 1
  40   25   26 1
  41   26   27 2
  42   27   28 1
  43   27   44 1
  44   28   29 2
  45   29   30 1
  46   30   45 1
  47   30   46 1
  48   31   32 1
  49   31   33 1
  50   31   47 1
  51   32   48 1
  52   32   49 1
  53   32   50 1
  54   33   51 1
  55   33   52 1
  56   33   53 1

#	End of record

