#	Name: ASD01230490
#	Creating user name:	WinNT
#	Creation time:	15. 06. 2019 19:14

#	Modifying user name:	WinNT
#	Modification time:	15. 06. 2019 19:14

#	Program:	/corina/corina34_cracker 3.40 0067  02.08.2006

@<TRIPOS>MOLECULE
ASD01230490
  38   40    0    0    0
SMALL
NO_CHARGES


@<TRIPOS>ATOM
   1 C1             0.4813     0.5890     1.1844 C.ar    
   2 C2             0.3114    -0.6388     0.5329 C.ar    
   3 C3             1.4374    -1.2857     0.0086 C.ar    
   4 C4             2.6797    -0.6746     0.1603 C.ar    
   5 C5             2.7626     0.5360     0.8153 C.ar    
   6 N6             1.6854     1.1261     1.3010 N.ar    
   7 N7            -0.6221     1.2506     1.7067 N.pl3   
   8 C8            -1.0359    -1.2432     0.4011 C.ar    
   9 C9            -2.0149    -0.6080    -0.3618 C.ar    
  10 C10           -3.2671    -1.1730    -0.4829 C.ar    
  11 C11           -3.5535    -2.3729     0.1543 C.ar    
  12 C12           -2.5808    -3.0079     0.9147 C.ar    
  13 C13           -1.3249    -2.4509     1.0350 C.ar    
  14 O14           -4.7886    -2.9266     0.0338 O.3     
  15 C15           -5.7253    -2.6053     0.9641 C.ar    
  16 C16           -5.4436    -1.6539     1.9342 C.ar    
  17 C17           -6.3978    -1.3287     2.8786 C.ar    
  18 C18           -7.6327    -1.9506     2.8581 C.ar    
  19 C19           -7.9159    -2.8989     1.8925 C.ar    
  20 C20           -6.9673    -3.2237     0.9424 C.ar    
  21 O21            1.3211    -2.4773    -0.6304 O.3     
  22 C22            2.5233    -3.0640    -1.1329 C.3     
  23 H23            3.5697    -1.1448    -0.2310 H       
  24 H24            3.7258     1.0102     0.9332 H       
  25 H25           -1.5066     0.8620     1.6197 H       
  26 H26           -0.5083     2.1013     2.1587 H       
  27 H27           -1.7930     0.3257    -0.8572 H       
  28 H28           -4.0259    -0.6815    -1.0737 H       
  29 H29           -2.8066    -3.9411     1.4092 H       
  30 H30           -0.5674    -2.9474     1.6233 H       
  31 H31           -4.4790    -1.1684     1.9511 H       
  32 H32           -6.1791    -0.5883     3.6338 H       
  33 H33           -8.3771    -1.6954     3.5978 H       
  34 H34           -8.8810    -3.3834     1.8789 H       
  35 H35           -7.1905    -3.9615     0.1859 H       
  36 H36            2.2896    -4.0109    -1.6196 H       
  37 H37            2.9833    -2.3885    -1.8542 H       
  38 H38            3.2140    -3.2400    -0.3082 H       
@<TRIPOS>BOND
   1    1    2 ar
   2    1    6 ar
   3    1    7 1
   4    2    3 ar
   5    2    8 1
   6    3    4 ar
   7    3   21 1
   8    4    5 ar
   9    4   23 1
  10    5    6 ar
  11    5   24 1
  12    7   25 1
  13    7   26 1
  14    8    9 ar
  15    8   13 ar
  16    9   10 ar
  17    9   27 1
  18   10   11 ar
  19   10   28 1
  20   11   12 ar
  21   11   14 1
  22   12   13 ar
  23   12   29 1
  24   13   30 1
  25   14   15 1
  26   15   16 ar
  27   15   20 ar
  28   16   17 ar
  29   16   31 1
  30   17   18 ar
  31   17   32 1
  32   18   19 ar
  33   18   33 1
  34   19   20 ar
  35   19   34 1
  36   20   35 1
  37   21   22 1
  38   22   36 1
  39   22   37 1
  40   22   38 1

#	End of record

