#	Name: ASD06170175
#	Creating user name:	WinNT
#	Creation time:	15. 06. 2019 21:05

#	Modifying user name:	WinNT
#	Modification time:	15. 06. 2019 21:05

#	Program:	/corina/corina34_cracker 3.40 0067  02.08.2006

@<TRIPOS>MOLECULE
ASD06170175
  72   76    0    0    0
SMALL
NO_CHARGES


@<TRIPOS>ATOM
   1 N1            -0.3705     1.9595     0.0040 N.pl3   
   2 N2            -0.4653     0.5655    -0.0417 N.am    
   3 C3             0.7696     0.0456     0.1167 C.2     
   4 C4             1.6868     1.1860     0.2700 C.2     
   5 C5             0.9117     2.3263     0.1896 C.2     
   6 C6             3.1399     1.1239     0.4693 C.2     
   7 O7             3.7829     2.1507     0.5825 O.2     
   8 N8             3.7617    -0.0705     0.5267 N.am    
   9 C9            -1.4981     2.8843    -0.1357 C.3     
  10 C10           -2.0683     3.2059     1.2471 C.3     
  11 C11           -3.2460     4.1717     1.1012 C.3     
  12 C12           -1.6430    -0.1675    -0.2208 C.ar    
  13 C13           -2.5129     0.1548    -1.2543 C.ar    
  14 C14           -3.6748    -0.5712    -1.4287 C.ar    
  15 C15           -3.9723    -1.6181    -0.5757 C.ar    
  16 C16           -3.1085    -1.9413     0.4547 C.ar    
  17 C17           -1.9422    -1.2229     0.6310 C.ar    
  18 O18            1.0666    -1.1344     0.1301 O.2     
  19 C19            5.2119    -0.1325     0.7255 C.3     
  20 C20            5.5827    -1.4742     1.3604 C.3     
  21 C21            5.1453    -2.6134     0.4374 C.3     
  22 C22            5.8516    -2.4755    -0.9129 C.3     
  23 C23            5.4808    -1.1337    -1.5477 C.3     
  24 C24            5.9181     0.0054    -0.6247 C.3     
  25 O25            5.4431    -3.5394    -1.7750 O.3     
  26 N26            8.0304    -4.5473    -4.8246 N.ar    
  27 C27            8.3627    -3.6215    -3.9559 C.ar    
  28 C28            7.5177    -3.2563    -2.9156 C.ar    
  29 C29            6.2882    -3.8761    -2.7802 C.ar    
  30 C30            5.9404    -4.8711    -3.7215 C.ar    
  31 C31            4.7112    -5.5429    -3.6492 C.ar    
  32 C32            4.4050    -6.4960    -4.5710 C.ar    
  33 C33            5.3026    -6.8164    -5.5936 C.ar    
  34 C34            6.5166    -6.1751    -5.6915 C.ar    
  35 C35            6.8574    -5.1877    -4.7534 C.ar    
  36 O36            4.9731    -7.7720    -6.5010 O.3     
  37 C37            3.6998    -8.4019    -6.3464 C.3     
  38 C38            1.4162     3.7427     0.2924 C.3     
  39 H39            3.2492    -0.8890     0.4364 H       
  40 H40           -1.1570     3.8040    -0.6110 H       
  41 H41           -2.2720     2.4235    -0.7496 H       
  42 H42           -2.4094     2.2862     1.7224 H       
  43 H43           -1.2944     3.6667     1.8610 H       
  44 H44           -3.6522     4.4009     2.0864 H       
  45 H45           -2.9049     5.0914     0.6260 H       
  46 H46           -4.0198     3.7109     0.4873 H       
  47 H47           -2.2813     0.9726    -1.9207 H       
  48 H48           -4.3519    -0.3208    -2.2320 H       
  49 H49           -4.8815    -2.1843    -0.7142 H       
  50 H50           -3.3439    -2.7592     1.1194 H       
  51 H51           -1.2658    -1.4786     1.4332 H       
  52 H52            5.5235     0.6791     1.3831 H       
  53 H53            6.6616    -1.5204     1.5083 H       
  54 H54            5.0795    -1.5725     2.3223 H       
  55 H55            5.4095    -3.5693     0.8896 H       
  56 H56            4.0664    -2.5673     0.2894 H       
  57 H57            6.9305    -2.5216    -0.7649 H       
  58 H58            5.9839    -1.0355    -2.5096 H       
  59 H59            4.4018    -1.0876    -1.6956 H       
  60 H60            5.6539     0.9613    -1.0770 H       
  61 H61            6.9971    -0.0407    -0.4768 H       
  62 H62            9.3199    -3.1306    -4.0519 H       
  63 H63            7.8191    -2.4912    -2.2155 H       
  64 H64            4.0095    -5.3045    -2.8636 H       
  65 H65            3.4576    -7.0111    -4.5115 H       
  66 H66            7.2032    -6.4303    -6.4851 H       
  67 H67            3.6527    -8.8925    -5.3742 H       
  68 H68            2.9125    -7.6510    -6.4130 H       
  69 H69            3.5629    -9.1427    -7.1342 H       
  70 H70            1.3972     4.0603     1.3349 H       
  71 H71            2.4378     3.7927    -0.0841 H       
  72 H72            0.7783     4.3994    -0.2991 H       
@<TRIPOS>BOND
   1    1    2 1
   2    1    5 1
   3    1    9 1
   4    2    3 am
   5    2   12 1
   6    3    4 1
   7    3   18 2
   8    4    5 2
   9    4    6 1
  10    5   38 1
  11    6    7 2
  12    6    8 am
  13    8   19 1
  14    8   39 1
  15    9   10 1
  16    9   40 1
  17    9   41 1
  18   10   11 1
  19   10   42 1
  20   10   43 1
  21   11   44 1
  22   11   45 1
  23   11   46 1
  24   12   13 ar
  25   12   17 ar
  26   13   14 ar
  27   13   47 1
  28   14   15 ar
  29   14   48 1
  30   15   16 ar
  31   15   49 1
  32   16   17 ar
  33   16   50 1
  34   17   51 1
  35   19   20 1
  36   19   24 1
  37   19   52 1
  38   20   21 1
  39   20   53 1
  40   20   54 1
  41   21   22 1
  42   21   55 1
  43   21   56 1
  44   22   23 1
  45   22   25 1
  46   22   57 1
  47   23   24 1
  48   23   58 1
  49   23   59 1
  50   24   60 1
  51   24   61 1
  52   25   29 1
  53   26   27 ar
  54   26   35 ar
  55   27   28 ar
  56   27   62 1
  57   28   29 ar
  58   28   63 1
  59   29   30 ar
  60   30   31 ar
  61   30   35 ar
  62   31   32 ar
  63   31   64 1
  64   32   33 ar
  65   32   65 1
  66   33   34 ar
  67   33   36 1
  68   34   35 ar
  69   34   66 1
  70   36   37 1
  71   37   67 1
  72   37   68 1
  73   37   69 1
  74   38   70 1
  75   38   71 1
  76   38   72 1

#	End of record

