#	Name: ASD01883854
#	Creating user name:	WinNT
#	Creation time:	15. 06. 2019 19:47

#	Modifying user name:	WinNT
#	Modification time:	15. 06. 2019 19:47

#	Program:	/corina/corina34_cracker 3.40 0067  02.08.2006

@<TRIPOS>MOLECULE
ASD01883854
  43   47    0    0    0
SMALL
NO_CHARGES


@<TRIPOS>ATOM
   1 O1            -0.0163     1.3537     0.0095 O.3     
   2 C2             0.1895     0.0157    -0.0968 C.2     
   3 C3             1.6496    -1.8713    -0.2669 C.2     
   4 C4             1.4613    -0.4815    -0.1575 C.2     
   5 C5            -0.9073    -0.8693    -0.1391 C.2     
   6 C6            -0.7055    -2.1981    -0.2437 C.2     
   7 N7             2.3648    -3.8731    -0.4339 N.2     
   8 N8             2.7242    -2.6408    -0.3455 N.2     
   9 N9             0.5593    -2.7054    -0.3099 N.pl3   
  10 C10            1.0611    -3.9684    -0.4161 C.2     
  11 C11            0.2595    -5.2418    -0.4987 C.3     
  12 C12            0.0153    -5.7831     0.9114 C.3     
  13 C13           -0.8841    -7.0130     1.0501 C.3     
  14 C14            0.6257    -7.1415     1.2623 C.3     
  15 Cl15           2.8270     0.5887    -0.1010 Cl      
  16 C16           -0.6538     2.0016    -1.0932 C.3     
  17 C17           -0.6847     3.4889    -0.8525 C.ar    
  18 C18           -1.2640     4.3464    -1.8003 C.ar    
  19 C19           -1.2832     5.7443    -1.5538 C.ar    
  20 C20           -0.7242     6.2454    -0.3699 C.ar    
  21 C21           -0.1702     5.3829     0.5276 C.ar    
  22 C22           -0.1555     4.0102     0.2892 C.ar    
  23 N23           -2.3595     4.7081    -3.8497 N.ar    
  24 C24           -2.3907     6.0179    -3.6444 C.ar    
  25 C25           -1.8696     6.5822    -2.5201 C.ar    
  26 C26           -1.8293     3.8670    -2.9931 C.ar    
  27 H27           -1.9137    -0.4809    -0.0873 H       
  28 H28           -1.5528    -2.8672    -0.2749 H       
  29 H29           -0.6969    -5.0386    -0.9805 H       
  30 H30            0.8100    -5.9806    -1.0811 H       
  31 H31           -0.0322    -5.0332     1.7011 H       
  32 H32           -1.5230    -7.0725     1.9313 H       
  33 H33           -1.3019    -7.4366     0.1368 H       
  34 H34            1.2012    -7.6496     0.4885 H       
  35 H35            0.9800    -7.2855     2.2830 H       
  36 H36           -0.0986     1.7929    -2.0077 H       
  37 H37           -1.6731     1.6286    -1.1939 H       
  38 H38           -0.7322     7.3069    -0.1710 H       
  39 H39            0.2609     5.7688     1.4395 H       
  40 H40            0.2900     3.3493     1.0181 H       
  41 H41           -2.8423     6.6552    -4.3903 H       
  42 H42           -1.9060     7.6515    -2.3728 H       
  43 H43           -1.8275     2.8080    -3.2052 H       
@<TRIPOS>BOND
   1    1    2 1
   2    1   16 1
   3    2    5 1
   4    2    4 2
   5    3    4 1
   6    3    9 1
   7    3    8 2
   8    4   15 1
   9    5    6 2
  10    5   27 1
  11    6    9 1
  12    6   28 1
  13    7    8 1
  14    7   10 2
  15    9   10 1
  16   10   11 1
  17   11   12 1
  18   11   29 1
  19   11   30 1
  20   12   13 1
  21   12   14 1
  22   12   31 1
  23   13   14 1
  24   13   32 1
  25   13   33 1
  26   14   34 1
  27   14   35 1
  28   16   17 1
  29   16   36 1
  30   16   37 1
  31   17   18 ar
  32   17   22 ar
  33   18   19 ar
  34   18   26 ar
  35   19   20 ar
  36   19   25 ar
  37   20   21 ar
  38   20   38 1
  39   21   22 ar
  40   21   39 1
  41   22   40 1
  42   23   24 ar
  43   23   26 ar
  44   24   25 ar
  45   24   41 1
  46   25   42 1
  47   26   43 1

#	End of record

