#	Name: ASD01890104
#	Creating user name:	WinNT
#	Creation time:	15. 06. 2019 19:50

#	Modifying user name:	WinNT
#	Modification time:	15. 06. 2019 19:50

#	Program:	/corina/corina34_cracker 3.40 0067  02.08.2006

@<TRIPOS>MOLECULE
ASD01890104
  42   44    0    0    0
SMALL
NO_CHARGES


@<TRIPOS>ATOM
   1 C1            -0.0178     1.4583     0.0101 C.2     
   2 C2             0.0021    -0.0041     0.0020 C.2     
   3 C3             1.1807    -0.6634    -0.0128 C.2     
   4 O4             1.0284     2.0815     0.0034 O.2     
   5 C5             1.2007    -2.1339    -0.0209 C.ar    
   6 C6             2.4198    -2.8204    -0.0362 C.ar    
   7 C7             2.4307    -4.1985    -0.0432 C.ar    
   8 C8             1.2382    -4.9042    -0.0356 C.ar    
   9 C9             0.0271    -4.2312    -0.0204 C.ar    
  10 C10            0.0006    -2.8534    -0.0074 C.ar    
  11 Cl11           1.2618    -6.6400    -0.0457 Cl      
  12 C12           -1.3062     2.1790     0.0201 C.ar    
  13 C13           -1.3299     3.5810     0.0278 C.ar    
  14 C14           -2.5456     4.2474     0.0367 C.ar    
  15 C15           -3.7272     3.5322     0.0380 C.ar    
  16 C16           -3.7081     2.1471     0.0308 C.ar    
  17 C17           -2.5087     1.4683     0.0161 C.ar    
  18 O18           -0.1685     4.2822     0.0270 O.3     
  19 C19           -0.2712     5.7075     0.0352 C.3     
  20 C20            1.1099     6.3107     0.0330 C.ar    
  21 C21            1.7385     6.5938    -1.1651 C.ar    
  22 C22            3.0053     7.1471    -1.1671 C.ar    
  23 C23            3.6433     7.4175     0.0290 C.ar    
  24 C24            3.0143     7.1352     1.2272 C.ar    
  25 C25            1.7457     6.5860     1.2292 C.ar    
  26 H26           -0.9258    -0.5567     0.0079 H       
  27 H27            2.1086    -0.1107    -0.0187 H       
  28 H28            3.3500    -2.2717    -0.0429 H       
  29 H29            3.3709    -4.7297    -0.0550 H       
  30 H30           -0.8984    -4.7879    -0.0149 H       
  31 H31           -0.9440    -2.3302     0.0089 H       
  32 H32           -2.5688     5.3271     0.0431 H       
  33 H33           -4.6717     4.0559     0.0449 H       
  34 H34           -4.6373     1.5966     0.0322 H       
  35 H35           -2.4986     0.3884     0.0056 H       
  36 H36           -0.8133     6.0378    -0.8508 H       
  37 H37           -0.8063     6.0281     0.9291 H       
  38 H38            1.2401     6.3825    -2.0996 H       
  39 H39            3.4968     7.3676    -2.1032 H       
  40 H40            4.6333     7.8491     0.0275 H       
  41 H41            3.5129     7.3462     2.1617 H       
  42 H42            1.2528     6.3689     2.1653 H       
@<TRIPOS>BOND
   1    1    2 1
   2    1    4 2
   3    1   12 1
   4    2    3 2
   5    2   26 1
   6    3    5 1
   7    3   27 1
   8    5    6 ar
   9    5   10 ar
  10    6    7 ar
  11    6   28 1
  12    7    8 ar
  13    7   29 1
  14    8    9 ar
  15    8   11 1
  16    9   10 ar
  17    9   30 1
  18   10   31 1
  19   12   13 ar
  20   12   17 ar
  21   13   14 ar
  22   13   18 1
  23   14   15 ar
  24   14   32 1
  25   15   16 ar
  26   15   33 1
  27   16   17 ar
  28   16   34 1
  29   17   35 1
  30   18   19 1
  31   19   20 1
  32   19   36 1
  33   19   37 1
  34   20   21 ar
  35   20   25 ar
  36   21   22 ar
  37   21   38 1
  38   22   23 ar
  39   22   39 1
  40   23   24 ar
  41   23   40 1
  42   24   25 ar
  43   24   41 1
  44   25   42 1

#	End of record

