#	Name: ASD01180209
#	Creating user name:	WinNT
#	Creation time:	15. 06. 2019 19:07

#	Modifying user name:	WinNT
#	Modification time:	15. 06. 2019 19:07

#	Program:	/corina/corina34_cracker 3.40 0067  02.08.2006

@<TRIPOS>MOLECULE
ASD01180209
  63   65    0    0    0
SMALL
NO_CHARGES


@<TRIPOS>ATOM
   1 C1             0.3284     1.2865     0.9731 C.ar    
   2 C2             0.2526    -0.0733     0.7259 C.ar    
   3 C3             1.4402    -0.8098     0.7019 C.ar    
   4 C4             2.6466    -0.1506     0.9265 C.ar    
   5 N5             2.6691     1.1462     1.1583 N.ar    
   6 C6             1.5653     1.8674     1.1865 C.ar    
   7 C7             1.4163    -2.2707     0.4420 C.ar    
   8 C8             2.6055    -2.9965     0.4201 C.ar    
   9 C9             2.5775    -4.3550     0.1778 C.ar    
  10 C10            1.3718    -4.9959    -0.0430 C.ar    
  11 C11            0.1883    -4.2803    -0.0224 C.ar    
  12 C12            0.2042    -2.9224     0.2246 C.ar    
  13 C13            1.3476    -6.4793    -0.3075 C.3     
  14 N14            0.2082    -7.0811     0.3896 N.pl3   
  15 C15            0.2533    -8.4119     0.7692 C.ar    
  16 N16           -0.7364    -8.9196     1.4911 N.ar    
  17 C17           -0.7358   -10.1793     1.8746 C.ar    
  18 C18            0.3189   -11.0251     1.5284 C.ar    
  19 C19            1.3797   -10.5141     0.7646 C.ar    
  20 C20            1.3355    -9.2007     0.3824 C.ar    
  21 C21            0.3189   -12.4362     1.9594 C.2     
  22 N22           -0.7045   -12.9168     2.6930 N.am    
  23 O23            1.2423   -13.1654     1.6528 O.2     
  24 C24           -0.7044   -14.3178     3.1210 C.3     
  25 C25           -1.9692   -14.6031     3.9332 C.3     
  26 C26           -1.9691   -16.0443     4.3735 C.2     
  27 O27           -2.9884   -16.5230     5.1041 O.3     
  28 O28           -1.0516   -16.7690     4.0689 O.2     
  29 C29            1.6530     3.3474     1.4566 C.3     
  30 F30            2.9968     3.7296     1.5282 F       
  31 F31            1.0233     4.0483     0.4224 F       
  32 F32            1.0201     3.6384     2.6699 F       
  33 C33            1.2142    -6.7271    -1.8114 C.3     
  34 C34            2.4584    -6.1984    -2.5278 C.3     
  35 C35            3.6776    -7.0213    -2.1068 C.3     
  36 C36            2.2632    -6.3134    -4.0409 C.3     
  37 H37           -0.5683     1.8881     0.9946 H       
  38 H38           -0.6999    -0.5531     0.5561 H       
  39 H39            3.5718    -0.7075     0.9109 H       
  40 H40            3.5475    -2.4969     0.5921 H       
  41 H41            3.4986    -4.9185     0.1603 H       
  42 H42           -0.7503    -4.7856    -0.1958 H       
  43 H43           -0.7205    -2.3647     0.2408 H       
  44 H44            2.2729    -6.9280     0.0539 H       
  45 H45           -0.5777    -6.5473     0.5851 H       
  46 H46           -1.5579   -10.5608     2.4621 H       
  47 H47            2.2098   -11.1441     0.4812 H       
  48 H48            2.1361    -8.7770    -0.2058 H       
  49 H49           -1.4411   -12.3350     2.9375 H       
  50 H50           -0.6817   -14.9655     2.2445 H       
  51 H51            0.1740   -14.5095     3.7372 H       
  52 H52           -1.9919   -13.9554     4.8097 H       
  53 H53           -2.8477   -14.4114     3.3170 H       
  54 H54           -2.9440   -17.4536     5.3629 H       
  55 H55            1.1156    -7.7968    -1.9961 H       
  56 H56            0.3312    -6.2106    -2.1878 H       
  57 H57            2.6153    -5.1535    -2.2600 H       
  58 H58            3.5319    -8.0616    -2.3980 H       
  59 H59            4.5682    -6.6282    -2.5970 H       
  60 H60            3.8013    -6.9606    -1.0256 H       
  61 H61            1.3946    -5.7271    -4.3408 H       
  62 H62            3.1496    -5.9367    -4.5513 H       
  63 H63            2.1063    -7.3583    -4.3086 H       
@<TRIPOS>BOND
   1    1    2 ar
   2    1    6 ar
   3    1   37 1
   4    2    3 ar
   5    2   38 1
   6    3    4 ar
   7    3    7 1
   8    4    5 ar
   9    4   39 1
  10    5    6 ar
  11    6   29 1
  12    7    8 ar
  13    7   12 ar
  14    8    9 ar
  15    8   40 1
  16    9   10 ar
  17    9   41 1
  18   10   11 ar
  19   10   13 1
  20   11   12 ar
  21   11   42 1
  22   12   43 1
  23   13   14 1
  24   13   33 1
  25   13   44 1
  26   14   15 1
  27   14   45 1
  28   15   16 ar
  29   15   20 ar
  30   16   17 ar
  31   17   18 ar
  32   17   46 1
  33   18   19 ar
  34   18   21 1
  35   19   20 ar
  36   19   47 1
  37   20   48 1
  38   21   22 am
  39   21   23 2
  40   22   24 1
  41   22   49 1
  42   24   25 1
  43   24   50 1
  44   24   51 1
  45   25   26 1
  46   25   52 1
  47   25   53 1
  48   26   27 1
  49   26   28 2
  50   27   54 1
  51   29   30 1
  52   29   31 1
  53   29   32 1
  54   33   34 1
  55   33   55 1
  56   33   56 1
  57   34   35 1
  58   34   36 1
  59   34   57 1
  60   35   58 1
  61   35   59 1
  62   35   60 1
  63   36   61 1
  64   36   62 1
  65   36   63 1

#	End of record

