#	Name: ASD02508124
#	Creating user name:	WinNT
#	Creation time:	15. 06. 2019 20:23

#	Modifying user name:	WinNT
#	Modification time:	15. 06. 2019 20:23

#	Program:	/corina/corina34_cracker 3.40 0067  02.08.2006

@<TRIPOS>MOLECULE
ASD02508124
  36   38    0    0    0
SMALL
NO_CHARGES


@<TRIPOS>ATOM
   1 C1             0.0877     1.7444     0.3866 C.ar    
   2 C2             0.0124     0.3629     0.3030 C.ar    
   3 C3             1.3291     2.3792     0.3524 C.ar    
   4 C4             2.4848     1.6229     0.2351 C.ar    
   5 C5             2.4020     0.2466     0.1527 C.ar    
   6 C6             1.1695    -0.3823     0.1859 C.ar    
   7 N7            -0.8712     2.7504     0.5028 N.am    
   8 C8            -0.2190     3.9292     0.5415 C.2     
   9 O9             1.1025     3.7121     0.4506 O.3     
  10 S10            3.8723    -0.7129     0.0036 S.o2    
  11 N11            4.3759    -1.0798     1.5379 N.am    
  12 C12            3.5461    -1.8152     2.3885 C.ar    
  13 O13           -0.7462     5.0206     0.6390 O.2     
  14 C14           -2.3223     2.5606     0.5700 C.3     
  15 O15            3.4900    -1.9422    -0.5980 O.2     
  16 O16            4.8592     0.1482    -0.5475 O.2     
  17 C17            3.5218    -1.5366     3.7504 C.ar    
  18 Cl18           4.5226    -0.2742     4.3974 Cl      
  19 C19           -2.7489     2.4033     2.0309 C.3     
  20 C20            2.7397    -2.8219     1.8748 C.ar    
  21 C21            1.9201    -3.5468     2.7183 C.ar    
  22 C22            1.9015    -3.2708     4.0728 C.ar    
  23 C23            2.6997    -2.2656     4.5881 C.ar    
  24 H24           -0.9484    -0.1295     0.3298 H       
  25 H25            3.4487     2.1092     0.2077 H       
  26 H26            1.1124    -1.4589     0.1212 H       
  27 H27            5.2468    -0.7843     1.8462 H       
  28 H28           -2.8225     3.4266     0.1367 H       
  29 H29           -2.5978     1.6653     0.0127 H       
  30 H30           -3.8285     2.2620     2.0809 H       
  31 H31           -2.2487     1.5372     2.4643 H       
  32 H32           -2.4734     3.2986     2.5883 H       
  33 H33            2.7529    -3.0379     0.8167 H       
  34 H34            1.2928    -4.3300     2.3189 H       
  35 H35            1.2593    -3.8388     4.7296 H       
  36 H36            2.6828    -2.0525     5.6468 H       
@<TRIPOS>BOND
   1    1    2 ar
   2    1    3 ar
   3    1    7 1
   4    2    6 ar
   5    2   24 1
   6    3    4 ar
   7    3    9 1
   8    4    5 ar
   9    4   25 1
  10    5    6 ar
  11    5   10 1
  12    6   26 1
  13    7    8 am
  14    7   14 1
  15    8    9 1
  16    8   13 2
  17   10   11 am
  18   10   15 2
  19   10   16 2
  20   11   12 1
  21   11   27 1
  22   12   17 ar
  23   12   20 ar
  24   14   19 1
  25   14   28 1
  26   14   29 1
  27   17   18 1
  28   17   23 ar
  29   19   30 1
  30   19   31 1
  31   19   32 1
  32   20   21 ar
  33   20   33 1
  34   21   22 ar
  35   21   34 1
  36   22   23 ar
  37   22   35 1
  38   23   36 1

#	End of record

