#	Name: ASD03332040
#	Creating user name:	WinNT
#	Creation time:	15. 06. 2019 20:40

#	Modifying user name:	WinNT
#	Modification time:	15. 06. 2019 20:40

#	Program:	/corina/corina34_cracker 3.40 0067  02.08.2006

@<TRIPOS>MOLECULE
ASD03332040
  64   66    0    0    0
SMALL
NO_CHARGES


@<TRIPOS>ATOM
   1 C1            -0.1685     1.6341     1.5537 C.2     
   2 N2            -0.1976     0.3244     1.8941 N.pl3   
   3 C3             1.0725    -0.1596     1.7832 C.2     
   4 N4             1.8597     0.8181     1.3997 N.2     
   5 C5             1.1239     1.9411     1.2507 C.2     
   6 C6             1.6286     3.2616     0.8345 C.2     
   7 O7             0.8631     4.2016     0.7356 O.2     
   8 N8             2.9383     3.4277     0.5635 N.am    
   9 C9             3.4400     4.7405     0.1497 C.3     
  10 C10            3.2571     4.9035    -1.3605 C.3     
  11 C11            1.7658     4.8677    -1.7005 C.3     
  12 C12            4.9032     4.8502     0.4933 C.2     
  13 C13            3.8493     6.2426    -1.8043 C.3     
  14 C14            3.9734     3.7633    -2.0870 C.3     
  15 O15            5.5339     3.8560     0.7845 O.2     
  16 N16            5.5109     6.0530     0.4770 N.am    
  17 C17           -1.3931    -0.4123     2.3133 C.3     
  18 C18           -2.6247     0.2443     1.6828 C.3     
  19 C19           -3.1367     1.3574     2.5900 C.3     
  20 N20           -2.1319     2.4112     2.7526 N.4     
  21 C21           -1.3554     2.5615     1.5125 C.3     
  22 C22            1.4925    -1.5529     2.0502 C.ar    
  23 C23            2.6984    -2.0315     1.5372 C.ar    
  24 C24            3.0844    -3.3319     1.7897 C.ar    
  25 C25            2.2783    -4.1607     2.5495 C.ar    
  26 C26            1.0811    -3.6922     3.0606 C.ar    
  27 C27            0.6870    -2.3918     2.8208 C.ar    
  28 C28           -2.8027     3.6804     3.0646 C.3     
  29 C29            6.9493     6.1506     0.7369 C.3     
  30 C30           -1.2273     2.0566     3.8543 C.3     
  31 H31            3.5488     2.6780     0.6423 H       
  32 H32            2.8852     5.5217     0.6693 H       
  33 H33            1.2555     5.6800    -1.1829 H       
  34 H34            1.6355     4.9838    -2.7764 H       
  35 H35            1.3439     3.9137    -1.3843 H       
  36 H36            4.8814     6.3150    -1.4613 H       
  37 H37            3.8225     6.3092    -2.8920 H       
  38 H38            3.2660     7.0577    -1.3759 H       
  39 H39            3.5514     2.8093    -1.7708 H       
  40 H40            3.8431     3.8795    -3.1629 H       
  41 H41            5.0358     3.7888    -1.8448 H       
  42 H42            4.9958     6.8542     0.2931 H       
  43 H43           -1.3200    -1.4474     1.9797 H       
  44 H44           -1.4788    -0.3818     3.3995 H       
  45 H45           -2.3559     0.6621     0.7127 H       
  46 H46           -3.4064    -0.5038     1.5504 H       
  47 H47           -4.0384     1.7874     2.1540 H       
  48 H48           -3.3777     0.9394     3.5674 H       
  49 H49           -1.0097     3.5913     1.4221 H       
  50 H50           -1.9833     2.3113     0.6573 H       
  51 H51            3.3282    -1.3857     0.9434 H       
  52 H52            4.0177    -3.7036     1.3932 H       
  53 H53            2.5847    -5.1779     2.7441 H       
  54 H54            0.4561    -4.3442     3.6527 H       
  55 H55           -0.2476    -2.0271     3.2206 H       
  56 H56           -3.3710     3.5734     3.9886 H       
  57 H57           -2.0564     4.4655     3.1859 H       
  58 H58           -3.4784     3.9439     2.2509 H       
  59 H59            7.1663     5.7594     1.7310 H       
  60 H60            7.4934     5.5705    -0.0085 H       
  61 H61            7.2586     7.1943     0.6818 H       
  62 H62           -0.7315     1.1126     3.6278 H       
  63 H63           -0.4791     2.8398     3.9766 H       
  64 H64           -1.8000     1.9542     4.7761 H       
@<TRIPOS>BOND
   1    1    2 1
   2    1    5 2
   3    1   21 1
   4    2    3 1
   5    2   17 1
   6    3    4 2
   7    3   22 1
   8    4    5 1
   9    5    6 1
  10    6    7 2
  11    6    8 am
  12    8    9 1
  13    8   31 1
  14    9   10 1
  15    9   12 1
  16    9   32 1
  17   10   11 1
  18   10   13 1
  19   10   14 1
  20   11   33 1
  21   11   34 1
  22   11   35 1
  23   12   15 2
  24   12   16 am
  25   13   36 1
  26   13   37 1
  27   13   38 1
  28   14   39 1
  29   14   40 1
  30   14   41 1
  31   16   29 1
  32   16   42 1
  33   17   18 1
  34   17   43 1
  35   17   44 1
  36   18   19 1
  37   18   45 1
  38   18   46 1
  39   19   20 1
  40   19   47 1
  41   19   48 1
  42   20   21 1
  43   20   28 1
  44   20   30 1
  45   21   49 1
  46   21   50 1
  47   22   23 ar
  48   22   27 ar
  49   23   24 ar
  50   23   51 1
  51   24   25 ar
  52   24   52 1
  53   25   26 ar
  54   25   53 1
  55   26   27 ar
  56   26   54 1
  57   27   55 1
  58   28   56 1
  59   28   57 1
  60   28   58 1
  61   29   59 1
  62   29   60 1
  63   29   61 1
  64   30   62 1
  65   30   63 1
  66   30   64 1

#	End of record

