#	Name: ASD00180001
#	Creating user name:	WinNT
#	Creation time:	15. 06. 2019 18:33

#	Modifying user name:	WinNT
#	Modification time:	15. 06. 2019 18:33

#	Program:	/corina/corina34_cracker 3.40 0067  02.08.2006

@<TRIPOS>MOLECULE
ASD00180001
  49   53    0    0    0
SMALL
NO_CHARGES


@<TRIPOS>ATOM
   1 C1            -0.0164     1.3848     0.0370 C.ar    
   2 C2             0.0010     0.0018     0.0144 C.ar    
   3 C3             1.2045    -0.6797    -0.0129 C.ar    
   4 C4             2.3954     0.0175    -0.0171 C.ar    
   5 C5             2.3840     1.4112     0.0057 C.ar    
   6 C6             1.1683     2.0926     0.0326 C.ar    
   7 C7             3.6603     2.1661     0.0017 C.ar    
   8 N8             3.6206     3.4887     0.0237 N.ar    
   9 C9             4.7434     4.1996     0.0210 C.ar    
  10 C10            5.9805     3.5307    -0.0055 C.ar    
  11 C11            5.9729     2.1197    -0.0283 C.ar    
  12 N12            4.8052     1.4911    -0.0183 N.ar    
  13 N13            5.0363     5.5354     0.0394 N.pl3   
  14 N14            6.4354     5.6394     0.0236 N.2     
  15 N15            6.9508     4.4599    -0.0023 N.2     
  16 C16            4.0764     6.6418     0.0693 C.3     
  17 C17            3.7646     6.9978     1.5001 C.ar    
  18 C18            4.5259     7.9456     2.1582 C.ar    
  19 C19            4.2398     8.2721     3.4706 C.ar    
  20 C20            3.1923     7.6512     4.1248 C.ar    
  21 C21            2.4304     6.7041     3.4664 C.ar    
  22 C22            2.7137     6.3807     2.1526 C.ar    
  23 N23            7.1576     1.4077    -0.0553 N.pl3   
  24 C24            7.1375     0.0108     0.0431 C.ar    
  25 C25            8.0740    -0.7475    -0.6473 C.ar    
  26 C26            8.0542    -2.1246    -0.5504 C.ar    
  27 C27            7.0977    -2.7516     0.2377 C.ar    
  28 C28            6.1613    -1.9933     0.9281 C.ar    
  29 C29            6.1847    -0.6158     0.8356 C.ar    
  30 N30            7.0774    -4.1474     0.3356 N.pl3   
  31 H31           -0.9590     1.9117     0.0537 H       
  32 H32           -0.9285    -0.5480     0.0183 H       
  33 H33            1.2121    -1.7596    -0.0305 H       
  34 H34            3.3345    -0.5156    -0.0377 H       
  35 H35            1.1535     3.1724     0.0500 H       
  36 H36            4.5044     7.5078    -0.4356 H       
  37 H37            3.1599     6.3414    -0.4384 H       
  38 H38            5.3443     8.4307     1.6471 H       
  39 H39            4.8351     9.0120     3.9850 H       
  40 H40            2.9692     7.9058     5.1504 H       
  41 H41            1.6122     6.2187     3.9776 H       
  42 H42            2.1185     5.6408     1.6382 H       
  43 H43            8.0028     1.8756    -0.1424 H       
  44 H44            8.8175    -0.2600    -1.2604 H       
  45 H45            8.7822    -2.7143    -1.0876 H       
  46 H46            5.4173    -2.4808     1.5406 H       
  47 H47            5.4564    -0.0261     1.3725 H       
  48 H48            7.7313    -4.6770    -0.1469 H       
  49 H49            6.4094    -4.5853     0.8860 H       
@<TRIPOS>BOND
   1    1    2 ar
   2    1    6 ar
   3    1   31 1
   4    2    3 ar
   5    2   32 1
   6    3    4 ar
   7    3   33 1
   8    4    5 ar
   9    4   34 1
  10    5    6 ar
  11    5    7 1
  12    6   35 1
  13    7    8 ar
  14    7   12 ar
  15    8    9 ar
  16    9   10 ar
  17    9   13 1
  18   10   11 ar
  19   10   15 1
  20   11   12 ar
  21   11   23 1
  22   13   14 1
  23   13   16 1
  24   14   15 2
  25   16   17 1
  26   16   36 1
  27   16   37 1
  28   17   18 ar
  29   17   22 ar
  30   18   19 ar
  31   18   38 1
  32   19   20 ar
  33   19   39 1
  34   20   21 ar
  35   20   40 1
  36   21   22 ar
  37   21   41 1
  38   22   42 1
  39   23   24 1
  40   23   43 1
  41   24   25 ar
  42   24   29 ar
  43   25   26 ar
  44   25   44 1
  45   26   27 ar
  46   26   45 1
  47   27   28 ar
  48   27   30 1
  49   28   29 ar
  50   28   46 1
  51   29   47 1
  52   30   48 1
  53   30   49 1

#	End of record

