#	Name: ASD03240579
#	Creating user name:	WinNT
#	Creation time:	15. 06. 2019 20:35

#	Modifying user name:	WinNT
#	Modification time:	15. 06. 2019 20:35

#	Program:	/corina/corina34_cracker 3.40 0067  02.08.2006

@<TRIPOS>MOLECULE
ASD03240579
  68   74    0    0    0
SMALL
NO_CHARGES


@<TRIPOS>ATOM
   1 C1             0.1228     1.2584     0.1201 C.ar    
   2 C2             0.2016    -0.1133     0.2457 C.ar    
   3 N3             1.3671    -0.7179     0.3760 N.ar    
   4 C4             2.5086    -0.0431     0.3933 C.ar    
   5 C5             2.5044     1.3438     0.2572 C.ar    
   6 C6             1.2919     2.0079     0.1245 C.ar    
   7 N7             3.7031    -0.7361     0.5696 N.pl3   
   8 C8             4.4982    -0.5071     1.6894 C.ar    
   9 C9             5.0589     0.7542     1.9174 C.ar    
  10 C10            4.8356     1.8528     0.9521 C.2     
  11 N11            3.6972     2.0805     0.2332 N.pl3   
  12 C12            4.7367    -1.5360     2.5906 C.ar    
  13 C13            5.5141    -1.3088     3.7102 C.ar    
  14 C14            6.0595    -0.0580     3.9432 C.ar    
  15 C15            5.8370     0.9739     3.0538 C.ar    
  16 N16            5.7243     2.7780     0.6496 N.2     
  17 C17            5.2108     3.6192    -0.2610 C.2     
  18 C18            3.9224     3.1986    -0.5459 C.2     
  19 C19            2.9783     3.8214    -1.4934 C.ar    
  20 C20            2.8116     5.2085    -1.5085 C.ar    
  21 C21            2.2510     3.0273    -2.3836 C.ar    
  22 C22            1.3702     3.6164    -3.2664 C.ar    
  23 C23            1.2060     4.9905    -3.2719 C.ar    
  24 C24            1.9273     5.7837    -2.3969 C.ar    
  25 C25            5.8987     4.7888    -0.8552 C.ar    
  26 C26            0.2416     5.6266    -4.2396 C.3     
  27 N27           -0.7605     4.6817    -4.7503 N.3     
  28 C28           -0.3598     6.9475    -3.7313 C.3     
  29 C29           -0.2046     7.4790    -5.1660 C.3     
  30 C30            0.9283     6.4513    -5.3410 C.3     
  31 C31            5.6585     5.1402    -2.1837 C.ar    
  32 C32            6.7835     5.5445    -0.0854 C.ar    
  33 C33            7.4219     6.6327    -0.6406 C.ar    
  34 C34            7.1845     6.9778    -1.9662 C.ar    
  35 C35            6.2996     6.2294    -2.7340 C.ar    
  36 N36            7.8322     8.0810    -2.5259 N.am    
  37 S37            9.4334     7.9806    -2.9364 S.o2    
  38 C38            9.4907     6.7079    -4.2277 C.3     
  39 O39            9.7362     9.2577    -3.4811 O.2     
  40 O40           10.0703     7.5192    -1.7529 O.2     
  41 H41           -0.8366     1.7432     0.0150 H       
  42 H42           -0.7045    -0.7010     0.2376 H       
  43 H43            1.2590     3.0829     0.0267 H       
  44 H44            3.9840    -1.3852    -0.0941 H       
  45 H45            4.3140    -2.5145     2.4167 H       
  46 H46            5.6972    -2.1123     4.4082 H       
  47 H47            6.6612     0.1111     4.8240 H       
  48 H48            6.2635     1.9489     3.2379 H       
  49 H49            3.3736     5.8288    -0.8260 H       
  50 H50            2.3784     1.9549    -2.3807 H       
  51 H51            0.8075     3.0039    -3.9554 H       
  52 H52            1.7940     6.8554    -2.4067 H       
  53 H53           -0.3221     3.8411    -5.0956 H       
  54 H54           -1.4481     4.4669    -4.0438 H       
  55 H55           -1.3970     6.8592    -3.4082 H       
  56 H56            0.2686     7.4623    -3.0046 H       
  57 H57           -1.0701     7.2850    -5.7995 H       
  58 H58            0.1326     8.5144    -5.2139 H       
  59 H59            1.9094     6.8300    -5.0545 H       
  60 H60            0.9295     5.9648    -6.3164 H       
  61 H61            4.9712     4.5592    -2.7807 H       
  62 H62            6.9678     5.2772     0.9447 H       
  63 H63            8.1070     7.2180    -0.0451 H       
  64 H64            6.1171     6.4995    -3.7637 H       
  65 H65            7.3442     8.9060    -2.6744 H       
  66 H66            8.8042     6.9745    -5.0313 H       
  67 H67           10.5038     6.6375    -4.6237 H       
  68 H68            9.1986     5.7470    -3.8041 H       
@<TRIPOS>BOND
   1    1    2 ar
   2    1    6 ar
   3    1   41 1
   4    2    3 ar
   5    2   42 1
   6    3    4 ar
   7    4    5 ar
   8    4    7 1
   9    5    6 ar
  10    5   11 1
  11    6   43 1
  12    7    8 1
  13    7   44 1
  14    8    9 ar
  15    8   12 ar
  16    9   10 1
  17    9   15 ar
  18   10   11 1
  19   10   16 2
  20   11   18 1
  21   12   13 ar
  22   12   45 1
  23   13   14 ar
  24   13   46 1
  25   14   15 ar
  26   14   47 1
  27   15   48 1
  28   16   17 1
  29   17   18 2
  30   17   25 1
  31   18   19 1
  32   19   20 ar
  33   19   21 ar
  34   20   24 ar
  35   20   49 1
  36   21   22 ar
  37   21   50 1
  38   22   23 ar
  39   22   51 1
  40   23   24 ar
  41   23   26 1
  42   24   52 1
  43   25   32 ar
  44   25   31 ar
  45   26   27 1
  46   26   28 1
  47   26   30 1
  48   27   53 1
  49   27   54 1
  50   28   29 1
  51   28   55 1
  52   28   56 1
  53   29   30 1
  54   29   57 1
  55   29   58 1
  56   30   59 1
  57   30   60 1
  58   31   35 ar
  59   31   61 1
  60   32   33 ar
  61   32   62 1
  62   33   34 ar
  63   33   63 1
  64   34   35 ar
  65   34   36 1
  66   35   64 1
  67   36   37 am
  68   36   65 1
  69   37   38 1
  70   37   39 2
  71   37   40 2
  72   38   66 1
  73   38   67 1
  74   38   68 1

#	End of record

