#	Name: ASD08178092
#	Creating user name:	WinNT
#	Creation time:	15. 06. 2019 21:18

#	Modifying user name:	WinNT
#	Modification time:	15. 06. 2019 21:18

#	Program:	/corina/corina34_cracker 3.40 0067  02.08.2006

@<TRIPOS>MOLECULE
ASD08178092
  80   83    0    0    0
SMALL
NO_CHARGES


@<TRIPOS>ATOM
   1 N1            -0.1713     5.7446     0.2465 N.2     
   2 N2             0.3239     4.7355     0.8213 N.2     
   3 C3             0.5866     6.7898     0.1040 C.2     
   4 S4             2.1220     6.4515     0.7845 S.3     
   5 C5             1.5525     4.8393     1.2180 C.2     
   6 N6             0.2136     7.9853    -0.5008 N.am    
   7 C7            -1.0301     8.1286    -0.9999 C.2     
   8 O8            -1.8240     7.2150    -0.9216 O.2     
   9 C9             2.3515     3.7744     1.9241 C.3     
  10 C10            3.0767     2.9110     0.8899 C.3     
  11 C11            4.6132     0.9665     0.5725 C.3     
  12 C12            5.4122    -0.0983     1.2786 C.2     
  13 N13            4.9942    -1.2823     1.5965 N.2     
  14 S14            7.0872     0.0410     1.8138 S.3     
  15 C15            7.0056    -1.5583     2.4222 C.2     
  16 N16            5.8194    -2.0328     2.1878 N.2     
  17 N17            8.0397    -2.2379     3.0570 N.am    
  18 C18            7.8497    -3.4991     3.4926 C.2     
  19 O19            6.7770    -4.0414     3.3310 O.2     
  20 C20            8.9703    -4.2356     4.1803 C.3     
  21 C21           -1.4344     9.4240    -1.6552 C.3     
  22 C22           -0.8453     9.4875    -3.0658 C.3     
  23 C23            9.9393    -4.7845     3.1312 C.3     
  24 C24            3.8880     1.8299     1.6067 C.3     
  25 C25           -1.2036    10.8064    -3.7009 C.ar    
  26 C26            9.1831    -5.6406     2.1482 C.ar    
  27 C27           -0.4322    11.9260    -3.4511 C.ar    
  28 C28           -0.7609    13.1358    -4.0337 C.ar    
  29 C29           -1.8606    13.2258    -4.8663 C.ar    
  30 C30           -2.6314    12.1060    -5.1169 C.ar    
  31 C31           -2.3002    10.8953    -4.5378 C.ar    
  32 N32           -2.8995     9.4973    -1.7327 N.3     
  33 C33           -3.4328     8.4529    -2.6174 C.3     
  34 C34           -3.5022     9.4129    -0.3957 C.3     
  35 C35            8.6995    -5.0861     0.9779 C.ar    
  36 C36            8.0058    -5.8713     0.0761 C.ar    
  37 C37            7.7962    -7.2111     0.3444 C.ar    
  38 C38            8.2806    -7.7657     1.5143 C.ar    
  39 C39            8.9780    -6.9815     2.4140 C.ar    
  40 N40            8.4167    -5.3473     4.9649 N.3     
  41 C41            9.4877    -6.1377     5.5863 C.3     
  42 C42            7.4693    -4.8581     5.9754 C.3     
  43 H43            0.8485     8.7159    -0.5634 H       
  44 H44            3.0827     4.2448     2.5816 H       
  45 H45            1.6817     3.1488     2.5141 H       
  46 H46            2.3456     2.4407     0.2324 H       
  47 H47            3.7465     3.5366     0.2998 H       
  48 H48            5.2830     1.5921    -0.0175 H       
  49 H49            3.8820     0.4962    -0.0850 H       
  50 H50            8.8977    -1.8042     3.1861 H       
  51 H51            9.5013    -3.5522     4.8431 H       
  52 H52           -1.0593    10.2614    -1.0668 H       
  53 H53            0.2393     9.3933    -3.0112 H       
  54 H54           -1.2510     8.6731    -3.6660 H       
  55 H55           10.4112    -3.9557     2.6035 H       
  56 H56           10.7046    -5.3853     3.6226 H       
  57 H57            4.6191     2.3003     2.2642 H       
  58 H58            3.2181     1.2043     2.1967 H       
  59 H59            0.4270    11.8556    -2.8006 H       
  60 H60           -0.1587    14.0107    -3.8379 H       
  61 H61           -2.1178    14.1711    -5.3209 H       
  62 H62           -3.4908    12.1764    -5.7671 H       
  63 H63           -2.9024    10.0204    -4.7335 H       
  64 H64           -3.3195     7.4796    -2.1400 H       
  65 H65           -4.4889     8.6431    -2.8086 H       
  66 H66           -2.8856     8.4610    -3.5601 H       
  67 H67           -3.0861    10.1941     0.2404 H       
  68 H68           -4.5813     9.5450    -0.4746 H       
  69 H69           -3.2865     8.4370     0.0392 H       
  70 H70            8.8632    -4.0394     0.7682 H       
  71 H71            7.6273    -5.4380    -0.8379 H       
  72 H72            7.2536    -7.8244    -0.3598 H       
  73 H73            8.1166    -8.8124     1.7241 H       
  74 H74            9.3565    -7.4149     3.3280 H       
  75 H75           10.0899    -5.4934     6.2268 H       
  76 H76            9.0494    -6.9368     6.1841 H       
  77 H77           10.1184    -6.5694     4.8092 H       
  78 H78            6.6869    -4.2762     5.4882 H       
  79 H79            7.0219    -5.7057     6.4945 H       
  80 H80            7.9962    -4.2293     6.6931 H       
@<TRIPOS>BOND
   1    1    2 1
   2    1    3 2
   3    2    5 2
   4    3    4 1
   5    3    6 1
   6    4    5 1
   7    5    9 1
   8    6    7 am
   9    6   43 1
  10    7    8 2
  11    7   21 1
  12    9   10 1
  13    9   44 1
  14    9   45 1
  15   10   24 1
  16   10   46 1
  17   10   47 1
  18   11   12 1
  19   11   24 1
  20   11   48 1
  21   11   49 1
  22   12   13 2
  23   12   14 1
  24   13   16 1
  25   14   15 1
  26   15   16 2
  27   15   17 1
  28   17   18 am
  29   17   50 1
  30   18   19 2
  31   18   20 1
  32   20   23 1
  33   20   40 1
  34   20   51 1
  35   21   22 1
  36   21   32 1
  37   21   52 1
  38   22   25 1
  39   22   53 1
  40   22   54 1
  41   23   26 1
  42   23   55 1
  43   23   56 1
  44   24   57 1
  45   24   58 1
  46   25   27 ar
  47   25   31 ar
  48   26   35 ar
  49   26   39 ar
  50   27   28 ar
  51   27   59 1
  52   28   29 ar
  53   28   60 1
  54   29   30 ar
  55   29   61 1
  56   30   31 ar
  57   30   62 1
  58   31   63 1
  59   32   33 1
  60   32   34 1
  61   33   64 1
  62   33   65 1
  63   33   66 1
  64   34   67 1
  65   34   68 1
  66   34   69 1
  67   35   36 ar
  68   35   70 1
  69   36   37 ar
  70   36   71 1
  71   37   38 ar
  72   37   72 1
  73   38   39 ar
  74   38   73 1
  75   39   74 1
  76   40   41 1
  77   40   42 1
  78   41   75 1
  79   41   76 1
  80   41   77 1
  81   42   78 1
  82   42   79 1
  83   42   80 1

#	End of record

