#	Name: ASD03331202
#	Creating user name:	WinNT
#	Creation time:	15. 06. 2019 20:38

#	Modifying user name:	WinNT
#	Modification time:	15. 06. 2019 20:38

#	Program:	/corina/corina34_cracker 3.40 0067  02.08.2006

@<TRIPOS>MOLECULE
ASD03331202
  54   57    0    0    0
SMALL
NO_CHARGES


@<TRIPOS>ATOM
   1 N1            -0.1940     1.4006     0.4791 N.am    
   2 C2            -0.0915     0.0703     1.0979 C.3     
   3 C3             0.5135    -0.8971     0.0750 C.3     
   4 N4             1.7796    -0.3460    -0.4262 N.3     
   5 C5             1.5644     0.9199    -1.1397 C.3     
   6 C6             1.0025     1.9618    -0.1666 C.3     
   7 C7            -1.3549     2.0849     0.4983 C.2     
   8 O8            -2.3597     1.5651     0.9438 O.2     
   9 N9            -1.4021     3.3454     0.0236 N.am    
  10 C10           -2.6320     4.0022    -0.0970 C.ar    
  11 C11           -2.7097     5.3750     0.0972 C.ar    
  12 C12           -3.9249     6.0203    -0.0229 C.ar    
  13 C13           -5.0634     5.3008    -0.3362 C.ar    
  14 C14           -4.9894     3.9336    -0.5302 C.ar    
  15 C15           -3.7762     3.2833    -0.4167 C.ar    
  16 C16            2.4764    -1.3188    -1.2783 C.3     
  17 C17            3.6345    -0.6441    -1.9674 C.ar    
  18 C18            4.8797    -0.6257    -1.3670 C.ar    
  19 C19            5.9444    -0.0070    -1.9964 C.ar    
  20 C20            5.7662     0.5938    -3.2272 C.ar    
  21 C21            4.5174     0.5763    -3.8323 C.ar    
  22 C22            3.4522    -0.0495    -3.2011 C.ar    
  23 C23            6.3142     0.7993    -6.3180 C.ar    
  24 C24            7.4275     1.3041    -6.9639 C.ar    
  25 C25            7.6643     2.6673    -6.9734 C.ar    
  26 Cl26           8.5295     0.2267    -7.7631 Cl      
  27 O27            4.3395     1.1666    -5.0432 O.3     
  28 C28            5.4341     1.6607    -5.6790 C.ar    
  29 C29            5.6732     3.0274    -5.6897 C.ar    
  30 C30            6.7877     3.5281    -6.3368 C.ar    
  31 Cl31           7.0879     5.2379    -6.3501 Cl      
  32 H32            0.5516     0.1236     1.9763 H       
  33 H33           -1.0836    -0.2762     1.3875 H       
  34 H34            0.6989    -1.8602     0.5506 H       
  35 H35           -0.1801    -1.0287    -0.7555 H       
  36 H36            2.5120     1.2746    -1.5451 H       
  37 H37            0.8562     0.7630    -1.9534 H       
  38 H38            0.7337     2.8658    -0.7131 H       
  39 H39            1.7508     2.1969     0.5903 H       
  40 H40           -0.5836     3.7974    -0.2346 H       
  41 H41           -1.8208     5.9374     0.3423 H       
  42 H42           -3.9860     7.0879     0.1283 H       
  43 H43           -6.0126     5.8076    -0.4293 H       
  44 H44           -5.8804     3.3745    -0.7748 H       
  45 H45           -3.7183     2.2162    -0.5727 H       
  46 H46            2.8471    -2.1397    -0.6644 H       
  47 H47            1.7852    -1.7076    -2.0261 H       
  48 H48            5.0211    -1.0949    -0.4046 H       
  49 H49            6.9160     0.0066    -1.5250 H       
  50 H50            6.5980     1.0771    -3.7182 H       
  51 H51            2.4794    -0.0646    -3.6698 H       
  52 H52            6.1274    -0.2644    -6.3146 H       
  53 H53            8.5344     3.0601    -7.4784 H       
  54 H54            4.9891     3.6996    -5.1932 H       
@<TRIPOS>BOND
   1    1    2 1
   2    1    6 1
   3    1    7 am
   4    2    3 1
   5    2   32 1
   6    2   33 1
   7    3    4 1
   8    3   34 1
   9    3   35 1
  10    4    5 1
  11    4   16 1
  12    5    6 1
  13    5   36 1
  14    5   37 1
  15    6   38 1
  16    6   39 1
  17    7    8 2
  18    7    9 am
  19    9   10 1
  20    9   40 1
  21   10   11 ar
  22   10   15 ar
  23   11   12 ar
  24   11   41 1
  25   12   13 ar
  26   12   42 1
  27   13   14 ar
  28   13   43 1
  29   14   15 ar
  30   14   44 1
  31   15   45 1
  32   16   17 1
  33   16   46 1
  34   16   47 1
  35   17   18 ar
  36   17   22 ar
  37   18   19 ar
  38   18   48 1
  39   19   20 ar
  40   19   49 1
  41   20   21 ar
  42   20   50 1
  43   21   22 ar
  44   21   27 1
  45   22   51 1
  46   23   24 ar
  47   23   28 ar
  48   23   52 1
  49   24   25 ar
  50   24   26 1
  51   25   30 ar
  52   25   53 1
  53   27   28 1
  54   28   29 ar
  55   29   30 ar
  56   29   54 1
  57   30   31 1

#	End of record

