#	Name: ASD07300357
#	Creating user name:	WinNT
#	Creation time:	15. 06. 2019 21:09

#	Modifying user name:	WinNT
#	Modification time:	15. 06. 2019 21:09

#	Program:	/corina/corina34_cracker 3.40 0067  02.08.2006

@<TRIPOS>MOLECULE
ASD07300357
  42   43    0    0    0
SMALL
NO_CHARGES


@<TRIPOS>ATOM
   1 C1            -0.0168     1.3909     0.0097 C.ar    
   2 C2             0.0021    -0.0041     0.0020 C.ar    
   3 C3             1.2483    -0.6608    -0.0135 C.ar    
   4 C4             2.4061     0.1089    -0.0204 C.ar    
   5 C5             2.2941     1.4724    -0.0120 C.ar    
   6 N6             1.1129     2.0670     0.0025 N.ar    
   7 C7            -0.3853    -2.1410    -0.0057 C.2     
   8 N8            -0.9509    -0.9689     0.0060 N.2     
   9 N9             0.9698    -2.0068    -0.0180 N.pl3   
  10 C10            1.9497    -3.0958    -0.0333 C.3     
  11 O11            2.2808    -3.4575     1.3090 O.3     
  12 C12            3.2347    -4.5170     1.4070 C.3     
  13 C13            3.5122    -4.8186     2.8811 C.3     
  14 Si14           4.7558    -6.1999     3.0088 Si      
  15 C15            6.3393    -5.6894     2.1705 C.3     
  16 C16            5.0938    -6.5671     4.8037 C.3     
  17 C17            4.0779    -7.7244     2.1800 C.3     
  18 S18           -1.2474    -3.6777    -0.0057 S.o2    
  19 O19           -0.3345    -4.5916     0.5864 O.2     
  20 O20           -2.4920    -3.3813     0.6125 O.2     
  21 C21           -1.4850    -4.0634    -1.7622 C.3     
  22 H22           -0.9599     1.9172     0.0170 H       
  23 H23            3.3780    -0.3619    -0.0319 H       
  24 H24            3.1896     2.0761    -0.0170 H       
  25 H25            1.5264    -3.9583    -0.5481 H       
  26 H26            2.8495    -2.7676    -0.5536 H       
  27 H27            2.8380    -5.4090     0.9221 H       
  28 H28            4.1611    -4.2183     0.9165 H       
  29 H29            3.9089    -3.9266     3.3660 H       
  30 H30            2.5858    -5.1173     3.3715 H       
  31 H31            6.7359    -4.7974     2.6555 H       
  32 H32            7.0669    -6.4975     2.2453 H       
  33 H33            6.1416    -5.4745     1.1204 H       
  34 H34            4.1673    -6.8658     5.2942 H       
  35 H35            5.8214    -7.3753     4.8785 H       
  36 H36            5.4904    -5.6751     5.2887 H       
  37 H37            3.8802    -7.5096     1.1298 H       
  38 H38            4.8055    -8.5326     2.2547 H       
  39 H39            3.1514    -8.0231     2.6705 H       
  40 H40           -0.5142    -4.1415    -2.2517 H       
  41 H41           -2.0171    -5.0099    -1.8576 H       
  42 H42           -2.0665    -3.2706    -2.2329 H       
@<TRIPOS>BOND
   1    1    2 ar
   2    1    6 ar
   3    1   22 1
   4    2    3 ar
   5    2    8 1
   6    3    4 ar
   7    3    9 1
   8    4    5 ar
   9    4   23 1
  10    5    6 ar
  11    5   24 1
  12    7    8 2
  13    7    9 1
  14    7   18 1
  15    9   10 1
  16   10   11 1
  17   10   25 1
  18   10   26 1
  19   11   12 1
  20   12   13 1
  21   12   27 1
  22   12   28 1
  23   13   14 1
  24   13   29 1
  25   13   30 1
  26   14   15 1
  27   14   16 1
  28   14   17 1
  29   15   31 1
  30   15   32 1
  31   15   33 1
  32   16   34 1
  33   16   35 1
  34   16   36 1
  35   17   37 1
  36   17   38 1
  37   17   39 1
  38   18   19 2
  39   18   20 2
  40   18   21 1
  41   21   40 1
  42   21   41 1
  43   21   42 1

#	End of record

