#	Name: ASD02198264
#	Creating user name:	WinNT
#	Creation time:	15. 06. 2019 20:19

#	Modifying user name:	WinNT
#	Modification time:	15. 06. 2019 20:19

#	Program:	/corina/corina34_cracker 3.40 0067  02.08.2006

@<TRIPOS>MOLECULE
ASD02198264
  37   39    0    0    0
SMALL
NO_CHARGES


@<TRIPOS>ATOM
   1 C1            -0.0165     1.3890     0.0337 C.2     
   2 C2             0.0020    -0.0028     0.0262 C.2     
   3 C3            -1.2184    -0.7215     0.0405 C.2     
   4 S4             1.5724     2.0226     0.0135 S.3     
   5 C5             2.3086     0.4340    -0.0057 C.2     
   6 C6             1.3573    -0.5361     0.0034 C.2     
   7 C7             3.7019     0.1937    -0.0275 C.2     
   8 N8             4.5643     1.2294    -0.0344 N.am    
   9 O9             4.1227    -0.9494    -0.0401 O.2     
  10 N10            1.6464    -1.8921    -0.0079 N.pl3   
  11 N11           -1.2126     2.0720     0.0602 N.am    
  12 C12           -2.4215    -0.0313     0.0619 C.2     
  13 C13           -2.3919     1.4324     0.0796 C.2     
  14 O14           -3.4322     2.0659     0.1029 O.2     
  15 C15            5.9398     0.9945     0.0568 C.ar    
  16 C16            6.8322     1.8125    -0.6241 C.ar    
  17 C17            6.4169    -0.0538     0.8330 C.ar    
  18 C18            8.1900     1.5778    -0.5320 C.ar    
  19 C19            8.6614     0.5297     0.2371 C.ar    
  20 C20            7.7759    -0.2831     0.9209 C.ar    
  21 C21           -3.6992    -0.7544     0.0770 C.2     
  22 O22           -4.8608    -0.0702     0.0978 O.3     
  23 O23           -3.7097    -1.9702     0.0708 O.2     
  24 C24           10.1437     0.2762     0.3350 C.3     
  25 H25           -1.2123    -1.8015     0.0344 H       
  26 H26            4.2309     2.1378    -0.1026 H       
  27 H27            2.5690    -2.1912    -0.0235 H       
  28 H28            0.9260    -2.5417    -0.0003 H       
  29 H29           -1.2019     3.0420     0.0653 H       
  30 H30            6.4646     2.6310    -1.2253 H       
  31 H31            5.7258    -0.6887     1.3676 H       
  32 H32            8.8845     2.2132    -1.0615 H       
  33 H33            8.1473    -1.1009     1.5207 H       
  34 H34           -5.6763    -0.5899     0.1071 H       
  35 H35           10.5537     0.8375     1.1745 H       
  36 H36           10.3210    -0.7883     0.4884 H       
  37 H37           10.6287     0.5960    -0.5874 H       
@<TRIPOS>BOND
   1    1    2 2
   2    1    4 1
   3    1   11 1
   4    2    3 1
   5    2    6 1
   6    3   12 2
   7    3   25 1
   8    4    5 1
   9    5    6 2
  10    5    7 1
  11    6   10 1
  12    7    8 am
  13    7    9 2
  14    8   15 1
  15    8   26 1
  16   10   27 1
  17   10   28 1
  18   11   13 am
  19   11   29 1
  20   12   13 1
  21   12   21 1
  22   13   14 2
  23   15   16 ar
  24   15   17 ar
  25   16   18 ar
  26   16   30 1
  27   17   20 ar
  28   17   31 1
  29   18   19 ar
  30   18   32 1
  31   19   20 ar
  32   19   24 1
  33   20   33 1
  34   21   22 1
  35   21   23 2
  36   22   34 1
  37   24   35 1
  38   24   36 1
  39   24   37 1

#	End of record

