#	Name: ASD02198189
#	Creating user name:	WinNT
#	Creation time:	15. 06. 2019 20:19

#	Modifying user name:	WinNT
#	Modification time:	15. 06. 2019 20:19

#	Program:	/corina/corina34_cracker 3.40 0067  02.08.2006

@<TRIPOS>MOLECULE
ASD02198189
  47   50    0    0    0
SMALL
NO_CHARGES


@<TRIPOS>ATOM
   1 C1            -0.4362     1.6286    -0.4363 C.2     
   2 C2            -0.3370     0.2717    -0.2097 C.2     
   3 C3            -1.4251    -0.6359    -0.4169 C.1     
   4 S4             1.0383     2.4122    -0.0917 S.3     
   5 C5             1.8098     0.9022     0.3656 C.2     
   6 C6             0.9172    -0.1363     0.2384 C.2     
   7 C7             3.1433     0.7739     0.7975 C.2     
   8 C8             3.9612     1.9827     1.0430 C.ar    
   9 O9             3.6247    -0.3332     0.9694 O.2     
  10 N10            1.2332    -1.4546     0.5272 N.pl3   
  11 N11           -1.5706     2.2635    -0.8855 N.pl3   
  12 N12           -2.2883    -1.3559    -0.5812 N.1     
  13 C13           -1.5287     3.6239    -1.2107 C.ar    
  14 C14           -0.4270     4.1456    -1.8765 C.ar    
  15 C15           -0.3867     5.4879    -2.1975 C.ar    
  16 C16           -1.4463     6.3156    -1.8550 C.ar    
  17 C17           -2.5470     5.7953    -1.1895 C.ar    
  18 C18           -2.5914     4.4521    -0.8729 C.ar    
  19 O19           -1.4059     7.6372    -2.1714 O.3     
  20 C20           -1.0816     8.5186    -1.1894 C.ar    
  21 C21           -0.9593     9.8697    -1.4808 C.ar    
  22 C22           -0.6294    10.7636    -0.4806 C.ar    
  23 C23           -0.4212    10.3131     0.8100 C.ar    
  24 C24           -0.5420     8.9671     1.1029 C.ar    
  25 C25           -0.8777     8.0698     0.1077 C.ar    
  26 C26            3.3548     3.1634     1.4737 C.ar    
  27 C27            5.3427     1.9450     0.8503 C.ar    
  28 C28            6.0996     3.0751     1.0814 C.ar    
  29 C29            5.4916     4.2441     1.5032 C.ar    
  30 C30            4.1229     4.2866     1.7012 C.ar    
  31 H31            2.1236    -1.6832     0.8368 H       
  32 H32            0.5640    -2.1485     0.4196 H       
  33 H33           -2.3996     1.7683    -0.9769 H       
  34 H34            0.3980     3.5015    -2.1428 H       
  35 H35            0.4700     5.8937    -2.7149 H       
  36 H36           -3.3713     6.4402    -0.9230 H       
  37 H37           -3.4482     4.0472    -0.3549 H       
  38 H38           -1.1214    10.2221    -2.4887 H       
  39 H39           -0.5337    11.8153    -0.7069 H       
  40 H40           -0.1634    11.0136     1.5905 H       
  41 H41           -0.3782     8.6177     2.1116 H       
  42 H42           -0.9723     7.0187     0.3372 H       
  43 H43            2.2865     3.1979     1.6282 H       
  44 H44            5.8185     1.0329     0.5214 H       
  45 H45            7.1690     3.0471     0.9330 H       
  46 H46            6.0885     5.1260     1.6831 H       
  47 H47            3.6542     5.2023     2.0302 H       
@<TRIPOS>BOND
   1    1    2 2
   2    1    4 1
   3    1   11 1
   4    2    3 1
   5    2    6 1
   6    3   12 3
   7    4    5 1
   8    5    6 2
   9    5    7 1
  10    6   10 1
  11    7    8 1
  12    7    9 2
  13    8   26 ar
  14    8   27 ar
  15   10   31 1
  16   10   32 1
  17   11   13 1
  18   11   33 1
  19   13   14 ar
  20   13   18 ar
  21   14   15 ar
  22   14   34 1
  23   15   16 ar
  24   15   35 1
  25   16   17 ar
  26   16   19 1
  27   17   18 ar
  28   17   36 1
  29   18   37 1
  30   19   20 1
  31   20   21 ar
  32   20   25 ar
  33   21   22 ar
  34   21   38 1
  35   22   23 ar
  36   22   39 1
  37   23   24 ar
  38   23   40 1
  39   24   25 ar
  40   24   41 1
  41   25   42 1
  42   26   30 ar
  43   26   43 1
  44   27   28 ar
  45   27   44 1
  46   28   29 ar
  47   28   45 1
  48   29   30 ar
  49   29   46 1
  50   30   47 1

#	End of record

