#	Name: ASD00431434
#	Creating user name:	WinNT
#	Creation time:	15. 06. 2019 18:35

#	Modifying user name:	WinNT
#	Modification time:	15. 06. 2019 18:35

#	Program:	/corina/corina34_cracker 3.40 0067  02.08.2006

@<TRIPOS>MOLECULE
ASD00431434
  34   35    0    0    0
SMALL
NO_CHARGES


@<TRIPOS>ATOM
   1 S1            -2.8026     1.3276     0.0257 S.3     
   2 C2            -2.3684    -0.3248    -0.0300 C.2     
   3 N3            -3.4301    -1.0676    -0.1141 N.2     
   4 C4            -4.5905    -0.4534    -0.1405 C.2     
   5 C5            -4.5075     0.8948    -0.0745 C.2     
   6 C6            -5.6399     1.8333    -0.0842 C.2     
   7 N7            -6.8614     1.3811    -0.1621 N.2     
   8 N8            -5.4094     3.1983    -0.0105 N.pl3   
   9 O9            -1.0985    -0.7925     0.0083 O.3     
  10 C10            0.3532    -2.6818    -0.0096 C.ar    
  11 C11           -0.9157    -2.1365     0.1040 C.ar    
  12 C12           -2.0010    -2.9818     0.3177 C.ar    
  13 C13           -1.7682    -4.3429     0.4089 C.ar    
  14 C14           -0.4691    -4.8172     0.2852 C.ar    
  15 N15            0.5383    -3.9848     0.0831 N.ar    
  16 O16           -0.2303    -6.1507     0.3733 O.3     
  17 C17            1.1269    -6.5771     0.2379 C.3     
  18 C18            1.7932    -6.6025     1.6149 C.3     
  19 C19            1.1623    -7.9798    -0.3719 C.3     
  20 O20           -7.9516     2.2847    -0.1714 O.3     
  21 H21           -5.5308    -0.9800    -0.2098 H       
  22 H22           -4.5014     3.5344     0.0474 H       
  23 H23           -6.1563     3.8173    -0.0169 H       
  24 H24            1.1997    -2.0331    -0.1799 H       
  25 H25           -3.0011    -2.5847     0.4104 H       
  26 H26           -2.5868    -5.0277     0.5747 H       
  27 H27            1.6621    -5.8848    -0.4120 H       
  28 H28            2.8284    -6.9278     1.5117 H       
  29 H29            1.7680    -5.6032     2.0493 H       
  30 H30            1.2580    -7.2948     2.2648 H       
  31 H31            0.6876    -7.9617    -1.3529 H       
  32 H32            2.1975    -8.3051    -0.4751 H       
  33 H33            0.6271    -8.6721     0.2780 H       
  34 H34           -8.8167     1.8568    -0.2315 H       
@<TRIPOS>BOND
   1    1    2 1
   2    1    5 1
   3    2    3 2
   4    2    9 1
   5    3    4 1
   6    4    5 2
   7    4   21 1
   8    5    6 1
   9    6    7 2
  10    6    8 1
  11    7   20 1
  12    8   22 1
  13    8   23 1
  14    9   11 1
  15   10   11 ar
  16   10   15 ar
  17   10   24 1
  18   11   12 ar
  19   12   13 ar
  20   12   25 1
  21   13   14 ar
  22   13   26 1
  23   14   15 ar
  24   14   16 1
  25   16   17 1
  26   17   18 1
  27   17   19 1
  28   17   27 1
  29   18   28 1
  30   18   29 1
  31   18   30 1
  32   19   31 1
  33   19   32 1
  34   19   33 1
  35   20   34 1

#	End of record

