#	Name: ASD01478104
#	Creating user name:	WinNT
#	Creation time:	15. 06. 2019 19:21

#	Modifying user name:	WinNT
#	Modification time:	15. 06. 2019 19:21

#	Program:	/corina/corina34_cracker 3.40 0067  02.08.2006

@<TRIPOS>MOLECULE
ASD01478104
  23   24    0    0    0
SMALL
NO_CHARGES


@<TRIPOS>ATOM
   1 O1            -0.0169     1.3942     0.0097 O.3     
   2 C2             0.0021    -0.0041     0.0020 C.3     
   3 O3             0.2301    -0.5832     1.2773 O.3     
   4 C4             1.5605    -0.5374     1.7401 C.3     
   5 O5             1.9758     0.8051     1.9092 O.3     
   6 C6             2.3449     1.5695     0.7962 C.3     
   7 C7             1.1761     2.1275     0.0023 C.3     
   8 C8             0.9702     3.5612     0.5425 C.3     
   9 C9             2.4289     4.0420     0.7589 C.3     
  10 C10            3.1714     2.7883     1.2678 C.3     
  11 O11            2.4724     5.0809     1.7390 O.3     
  12 H12           -0.9552    -0.3626    -0.3764 H       
  13 H13            0.7873    -0.3373    -0.6765 H       
  14 H14            1.6287    -1.0591     2.6947 H       
  15 H15            2.2115    -1.0280     1.0164 H       
  16 H16            2.9680     0.9646     0.1375 H       
  17 H17            1.4992     2.2235    -1.0343 H       
  18 H18            0.4613     4.1839    -0.1933 H       
  19 H19            0.4227     3.5459     1.4849 H       
  20 H20            2.8605     4.3852    -0.1813 H       
  21 H21            3.2279     2.8032     2.3563 H       
  22 H22            4.1736     2.7482     0.8413 H       
  23 H23            3.3612     5.4194     1.9141 H       
@<TRIPOS>BOND
   1    1    2 1
   2    1    7 1
   3    2    3 1
   4    2   12 1
   5    2   13 1
   6    3    4 1
   7    4    5 1
   8    4   14 1
   9    4   15 1
  10    5    6 1
  11    6    7 1
  12    6   10 1
  13    6   16 1
  14    7    8 1
  15    7   17 1
  16    8    9 1
  17    8   18 1
  18    8   19 1
  19    9   10 1
  20    9   11 1
  21    9   20 1
  22   10   21 1
  23   10   22 1
  24   11   23 1

#	End of record

