#	Name: ASD01850054
#	Creating user name:	WinNT
#	Creation time:	15. 06. 2019 19:38

#	Modifying user name:	WinNT
#	Modification time:	15. 06. 2019 19:38

#	Program:	/corina/corina34_cracker 3.40 0067  02.08.2006

@<TRIPOS>MOLECULE
ASD01850054
  60   62    0    0    0
SMALL
NO_CHARGES


@<TRIPOS>ATOM
   1 C1             9.0095     1.1356     3.7680 C.ar    
   2 C2             8.1298     1.2811     4.8243 C.ar    
   3 C3             6.8187     1.6486     4.5863 C.ar    
   4 C4             6.3873     1.8711     3.2920 C.ar    
   5 C5             7.2672     1.7265     2.2357 C.ar    
   6 C6             8.5780     1.3576     2.4736 C.ar    
   7 C7             6.4711     1.3303    -2.1512 C.3     
   8 N8             6.1560     2.2984    -1.0977 N.am    
   9 S9             6.7022     2.0173     0.5409 Du      
  10 C10            5.3852     0.2533    -2.1955 C.3     
  11 C11            5.4453     3.4055    -1.3906 C.2     
  12 C12            4.8141     3.5579    -2.7505 C.3     
  13 O13            5.3139     4.2791    -0.5597 O.2     
  14 C14            3.5200     4.3651    -2.6244 C.3     
  15 C15            5.7834     4.2872    -3.6837 C.3     
  16 C16            5.1525     4.4097    -5.0743 C.3     
  17 N17            3.8398     5.0564    -4.9427 N.am    
  18 C18            2.8635     4.4884    -4.0030 C.3     
  19 C19            2.7441     5.8412    -7.3423 C.ar    
  20 C20            1.3759     5.6595    -7.4248 C.ar    
  21 C21            0.8061     5.2213    -8.6045 C.ar    
  22 C22            1.6078     4.9637    -9.7070 C.ar    
  23 C23            2.9803     5.1468    -9.6216 C.ar    
  24 C24            3.5447     5.5905    -8.4413 C.ar    
  25 O25            1.0497     4.5322   -10.8685 O.3     
  26 C26            1.9359     4.2869   -11.9623 C.3     
  27 S27            3.4679     6.4002    -5.8361 S.o2    
  28 O28            2.4425     7.0823    -5.1271 O.2     
  29 O29            4.7054     7.0047    -6.1857 O.2     
  30 C30            7.9859     3.2755     0.3288 C.3     
  31 H31           10.0350     0.8529     3.9543 H       
  32 H32            8.4668     1.1073     5.8356 H       
  33 H33            6.1312     1.7616     5.4116 H       
  34 H34            5.3627     2.1576     3.1060 H       
  35 H35            9.2655     1.2450     1.6484 H       
  36 H36            6.5154     1.8414    -3.1129 H       
  37 H37            7.4348     0.8662    -1.9416 H       
  38 H38            6.9740     0.6716     0.2194 H       
  39 H39            5.6197    -0.4670    -2.9793 H       
  40 H40            5.3409    -0.2578    -1.2338 H       
  41 H41            4.4215     0.7175    -2.4051 H       
  42 H42            4.5892     2.5727    -3.1590 H       
  43 H43            2.8394     3.8569    -1.9414 H       
  44 H44            3.7474     5.3592    -2.2395 H       
  45 H45            5.9894     5.2821    -3.2888 H       
  46 H46            6.7137     3.7236    -3.7546 H       
  47 H47            5.7948     5.0137    -5.7151 H       
  48 H48            5.0291     3.4174    -5.5082 H       
  49 H49            2.5535     3.5026    -4.3496 H       
  50 H50            1.9955     5.1444    -3.9370 H       
  51 H51            0.7523     5.8599    -6.5661 H       
  52 H52           -0.2626     5.0792    -8.6683 H       
  53 H53            3.6066     4.9469   -10.4785 H       
  54 H54            4.6131     5.7333    -8.3744 H       
  55 H55            1.3628     3.9482   -12.8254 H       
  56 H56            2.4642     5.2062   -12.2150 H       
  57 H57            2.6567     3.5192   -11.6808 H       
  58 H58            8.8335     2.8437    -0.2035 H       
  59 H59            7.5844     4.1112    -0.2444 H       
  60 H60            8.3130     3.6293     1.3065 H       
@<TRIPOS>BOND
   1    1    2 ar
   2    1    6 ar
   3    1   31 1
   4    2    3 ar
   5    2   32 1
   6    3    4 ar
   7    3   33 1
   8    4    5 ar
   9    4   34 1
  10    5    6 ar
  11    5    9 1
  12    6   35 1
  13    7    8 1
  14    7   10 1
  15    7   36 1
  16    7   37 1
  17    8    9 1
  18    8   11 am
  19    9   30 1
  20    9   38 1
  21   10   39 1
  22   10   40 1
  23   10   41 1
  24   11   12 1
  25   11   13 2
  26   12   14 1
  27   12   15 1
  28   12   42 1
  29   14   18 1
  30   14   43 1
  31   14   44 1
  32   15   16 1
  33   15   45 1
  34   15   46 1
  35   16   17 1
  36   16   47 1
  37   16   48 1
  38   17   27 am
  39   17   18 1
  40   18   49 1
  41   18   50 1
  42   19   27 1
  43   19   20 ar
  44   19   24 ar
  45   20   21 ar
  46   20   51 1
  47   21   22 ar
  48   21   52 1
  49   22   23 ar
  50   22   25 1
  51   23   24 ar
  52   23   53 1
  53   24   54 1
  54   25   26 1
  55   26   55 1
  56   26   56 1
  57   26   57 1
  58   27   28 2
  59   27   29 2
  60   30   58 1
  61   30   59 1
  62   30   60 1

#	End of record

