#	Name: ASD03090138
#	Creating user name:	WinNT
#	Creation time:	15. 06. 2019 20:28

#	Modifying user name:	WinNT
#	Modification time:	15. 06. 2019 20:28

#	Program:	/corina/corina34_cracker 3.40 0067  02.08.2006

@<TRIPOS>MOLECULE
ASD03090138
  52   54    0    0    0
SMALL
NO_CHARGES


@<TRIPOS>ATOM
   1 N1            -0.2821     0.9165    -0.8064 N.ar    
   2 C2            -0.1622    -0.1763    -0.0741 C.ar    
   3 C3             1.0670    -0.7761     0.1094 C.ar    
   4 C4             2.1974    -0.2112    -0.4931 C.ar    
   5 C5             2.0298     0.9443    -1.2598 C.ar    
   6 C6             0.7590     1.4835    -1.3936 C.ar    
   7 C7             3.5349    -0.8219    -0.3218 C.2     
   8 N8             7.0483    -0.7960    -0.4213 N.pl3   
   9 C9             7.4581     0.4246    -0.9644 C.ar    
  10 C10            6.6776     1.0567    -1.9239 C.ar    
  11 C11            7.0856     2.2630    -2.4586 C.ar    
  12 C12            8.2698     2.8413    -2.0401 C.ar    
  13 C13            9.0494     2.2147    -1.0848 C.ar    
  14 C14            8.6443     1.0116    -0.5416 C.ar    
  15 N15            4.6912    -0.2326    -0.5506 N.2     
  16 C16            5.6875    -1.0799    -0.2898 C.2     
  17 N17            5.1826    -2.2247     0.1099 N.2     
  18 N18            3.7857    -2.0805     0.1023 N.pl3   
  19 C19            2.7964    -3.0953     0.4733 C.3     
  20 C20            2.5481    -3.0379     1.9819 C.3     
  21 C21            1.5304    -4.0819     2.3636 C.2     
  22 O22            1.0510    -4.8010     1.5127 O.2     
  23 N23            1.1531    -4.2164     3.6504 N.am    
  24 C24            0.1638    -5.2312     4.0214 C.3     
  25 C25            1.7322    -3.3478     4.6782 C.3     
  26 Cl26          -1.5709    -0.8674     0.6686 Cl      
  27 O27            0.5815     2.6057    -2.1354 O.3     
  28 C28           -0.7506     3.1131    -2.2357 C.3     
  29 C29           10.3392     2.8488    -0.6317 C.3     
  30 F30           10.5310     4.0548    -1.3144 F       
  31 F31           10.2792     3.0962     0.7440 F       
  32 F32           11.4048     1.9842    -0.9040 F       
  33 H33            1.1559    -1.6692     0.7100 H       
  34 H34            2.8767     1.4109    -1.7407 H       
  35 H35            7.7092    -1.4460    -0.1358 H       
  36 H36            5.7529     0.6051    -2.2518 H       
  37 H37            6.4793     2.7550    -3.2047 H       
  38 H38            8.5869     3.7843    -2.4603 H       
  39 H39            9.2535     0.5228     0.2043 H       
  40 H40            1.8632    -2.9036    -0.0561 H       
  41 H41            3.1706    -4.0830     0.2040 H       
  42 H42            3.4814    -3.2297     2.5114 H       
  43 H43            2.1739    -2.0502     2.2513 H       
  44 H44            0.5380    -6.2189     3.7521 H       
  45 H45           -0.0131    -5.1904     5.0962 H       
  46 H46           -0.7695    -5.0395     3.4920 H       
  47 H47            1.1209    -2.4514     4.7829 H       
  48 H48            1.7624    -3.8800     5.6289 H       
  49 H49            2.7441    -3.0656     4.3875 H       
  50 H50           -1.1220     3.3580    -1.2406 H       
  51 H51           -0.7521     4.0100    -2.8550 H       
  52 H52           -1.3939     2.3582    -2.6880 H       
@<TRIPOS>BOND
   1    1    2 ar
   2    1    6 ar
   3    2    3 ar
   4    2   26 1
   5    3    4 ar
   6    3   33 1
   7    4    5 ar
   8    4    7 1
   9    5    6 ar
  10    5   34 1
  11    6   27 1
  12    7   15 2
  13    7   18 1
  14    8    9 1
  15    8   16 1
  16    8   35 1
  17    9   10 ar
  18    9   14 ar
  19   10   11 ar
  20   10   36 1
  21   11   12 ar
  22   11   37 1
  23   12   13 ar
  24   12   38 1
  25   13   14 ar
  26   13   29 1
  27   14   39 1
  28   15   16 1
  29   16   17 2
  30   17   18 1
  31   18   19 1
  32   19   20 1
  33   19   40 1
  34   19   41 1
  35   20   21 1
  36   20   42 1
  37   20   43 1
  38   21   22 2
  39   21   23 am
  40   23   24 1
  41   23   25 1
  42   24   44 1
  43   24   45 1
  44   24   46 1
  45   25   47 1
  46   25   48 1
  47   25   49 1
  48   27   28 1
  49   28   50 1
  50   28   51 1
  51   28   52 1
  52   29   30 1
  53   29   31 1
  54   29   32 1

#	End of record

