#	Name: ASD03091196
#	Creating user name:	WinNT
#	Creation time:	15. 06. 2019 20:30

#	Modifying user name:	WinNT
#	Modification time:	15. 06. 2019 20:30

#	Program:	/corina/corina34_cracker 3.40 0067  02.08.2006

@<TRIPOS>MOLECULE
ASD03091196
  63   66    0    0    0
SMALL
NO_CHARGES


@<TRIPOS>ATOM
   1 C1            -0.0948     1.3917    -0.0148 C.2     
   2 C2            -0.0334    -0.1139     0.0030 C.3     
   3 O3             0.9298     2.0402    -0.0385 O.2     
   4 N4            -1.2885     2.0176    -0.0098 N.am    
   5 C5            -1.3482     3.4813    -0.0271 C.3     
   6 C6            -1.2585     3.9784    -1.4713 C.3     
   7 C7            -2.6687     3.9451     0.5909 C.3     
   8 N8             3.2671    -1.1110     1.2288 N.2     
   9 C9             2.0283    -0.7298     1.1600 C.2     
  10 N10            1.3664    -0.5458    -0.0131 N.am    
  11 C11            1.9891    -0.7585    -1.1958 C.2     
  12 C12            3.3939    -1.1914    -1.1528 C.ar    
  13 C13            4.1245    -1.4375    -2.3130 C.ar    
  14 C14            5.4442    -1.8435    -2.2097 C.ar    
  15 C15            6.0370    -2.0047    -0.9575 C.ar    
  16 C16            5.3320    -1.7673     0.1878 C.ar    
  17 C17            3.9993    -1.3563     0.1127 C.ar    
  18 C18            1.2852    -0.4787     2.4469 C.3     
  19 C19            2.2145    -0.7454     3.6327 C.3     
  20 C20            1.4602    -0.4905     4.9392 C.3     
  21 F21            0.3536    -1.3433     5.0128 F       
  22 F22            2.3099    -0.7344     6.0235 F       
  23 F23            1.0273     0.8393     4.9759 F       
  24 O24            1.4089    -0.5982    -2.2539 O.2     
  25 N25            7.2695    -1.5692    -6.0732 N.3     
  26 C26            6.0740    -2.3910    -5.8303 C.3     
  27 C27            5.3574    -1.9370    -4.5681 C.3     
  28 N28            6.1866    -2.0937    -3.3672 N.3     
  29 C29            7.3667    -1.2204    -3.4350 C.3     
  30 C30            8.5559    -1.9784    -4.0057 C.3     
  31 C31            8.4539    -2.2225    -5.4978 C.3     
  32 C32            7.1684    -0.1704    -5.7160 C.3     
  33 C33            7.0151     0.0316    -4.2175 C.3     
  34 H34           -0.5183    -0.4867     0.9052 H       
  35 H35           -0.5456    -0.5088    -0.8744 H       
  36 H36           -2.1080     1.4989     0.0051 H       
  37 H37           -0.5157     3.8857     0.5487 H       
  38 H38           -1.3029     5.0674    -1.4841 H       
  39 H39           -0.3177     3.6479    -1.9115 H       
  40 H40           -2.0909     3.5740    -2.0471 H       
  41 H41           -2.7326     3.5910     1.6198 H       
  42 H42           -2.7132     5.0342     0.5780 H       
  43 H43           -3.5012     3.5407     0.0151 H       
  44 H44            3.6662    -1.3133    -3.2830 H       
  45 H45            7.0673    -2.3220    -0.8927 H       
  46 H46            5.8045    -1.8971     1.1502 H       
  47 H47            0.9480     0.5574     2.4755 H       
  48 H48            0.4231    -1.1431     2.5042 H       
  49 H49            2.5518    -1.7815     3.6041 H       
  50 H50            3.0767    -0.0810     3.5754 H       
  51 H51            5.3972    -2.3002    -6.6799 H       
  52 H52            6.3716    -3.4336    -5.7190 H       
  53 H53            5.0855    -0.8869    -4.6749 H       
  54 H54            4.4474    -2.5250    -4.4480 H       
  55 H55            7.6171    -0.9126    -2.4198 H       
  56 H56            9.4627    -1.4074    -3.8063 H       
  57 H57            8.6332    -2.9403    -3.4988 H       
  58 H58            8.3918    -3.2955    -5.6795 H       
  59 H59            9.3475    -1.8316    -5.9843 H       
  60 H60            8.0674     0.3462    -6.0522 H       
  61 H61            6.3046     0.2619    -6.2212 H       
  62 H62            5.9828     0.3066    -4.0008 H       
  63 H63            7.6701     0.8431    -3.9005 H       
@<TRIPOS>BOND
   1    1    2 1
   2    1    3 2
   3    1    4 am
   4    2   10 1
   5    2   34 1
   6    2   35 1
   7    4    5 1
   8    4   36 1
   9    5    6 1
  10    5    7 1
  11    5   37 1
  12    6   38 1
  13    6   39 1
  14    6   40 1
  15    7   41 1
  16    7   42 1
  17    7   43 1
  18    8    9 2
  19    8   17 1
  20    9   10 1
  21    9   18 1
  22   10   11 am
  23   11   12 1
  24   11   24 2
  25   12   13 ar
  26   12   17 ar
  27   13   14 ar
  28   13   44 1
  29   14   15 ar
  30   14   28 1
  31   15   16 ar
  32   15   45 1
  33   16   17 ar
  34   16   46 1
  35   18   19 1
  36   18   47 1
  37   18   48 1
  38   19   20 1
  39   19   49 1
  40   19   50 1
  41   20   21 1
  42   20   22 1
  43   20   23 1
  44   25   26 1
  45   25   31 1
  46   25   32 1
  47   26   27 1
  48   26   51 1
  49   26   52 1
  50   27   28 1
  51   27   53 1
  52   27   54 1
  53   28   29 1
  54   29   30 1
  55   29   33 1
  56   29   55 1
  57   30   31 1
  58   30   56 1
  59   30   57 1
  60   31   58 1
  61   31   59 1
  62   32   33 1
  63   32   60 1
  64   32   61 1
  65   33   62 1
  66   33   63 1

#	End of record

