#	Name: ASD01150686
#	Creating user name:	WinNT
#	Creation time:	15. 06. 2019 19:04

#	Modifying user name:	WinNT
#	Modification time:	15. 06. 2019 19:04

#	Program:	/corina/corina34_cracker 3.40 0067  02.08.2006

@<TRIPOS>MOLECULE
ASD01150686
  50   52    0    0    0
SMALL
NO_CHARGES


@<TRIPOS>ATOM
   1 C1            -0.0943     1.1969    -0.2287 C.ar    
   2 C2             0.2505     0.3273     0.7985 C.ar    
   3 C3             1.5649    -0.0662     0.9607 C.ar    
   4 C4             2.5416     0.4046     0.1015 C.ar    
   5 C5             2.2019     1.2757    -0.9283 C.ar    
   6 C6             0.8827     1.6710    -1.0931 C.ar    
   7 N7            -1.4274     1.5902    -0.3954 N.am    
   8 C8            -2.3971     0.6587    -0.4041 C.2     
   9 N9            -3.6891     1.0014    -0.5625 N.am    
  10 C10           -4.0305     2.2976    -0.7163 C.2     
  11 C11           -2.9748     3.3213    -0.7073 C.2     
  12 N12           -1.7326     2.9482    -0.5451 N.2     
  13 O13           -3.2863     4.6348    -0.8596 O.3     
  14 C14           -2.2019     5.5653    -0.8392 C.3     
  15 O15           -5.1963     2.6153    -0.8608 O.2     
  16 O16           -2.1018    -0.5131    -0.2668 O.2     
  17 N17            3.1907     1.7531    -1.7976 N.am    
  18 C18            2.8459     2.2532    -3.0007 C.2     
  19 C19            3.8928     2.8830    -3.8830 C.3     
  20 O20            1.6931     2.1963    -3.3734 O.2     
  21 C21           -4.7254    -0.0341    -0.5685 C.3     
  22 C22           -5.2190    -0.2590     0.8375 C.ar    
  23 C23           -4.6010    -1.1983     1.6401 C.ar    
  24 C24           -6.2856     0.4812     1.3192 C.ar    
  25 C25           -6.7450     0.2840     2.6040 C.ar    
  26 C26           -6.1327    -0.6663     3.4243 C.ar    
  27 C27           -5.0497    -1.4097     2.9343 C.ar    
  28 O28           -4.4438    -2.3326     3.7236 O.3     
  29 C29           -3.3472    -3.0520     3.1561 C.3     
  30 C30           -6.6046    -0.8758     4.7600 C.1     
  31 N31           -6.9789    -1.0420     5.8196 N.1     
  32 F32            3.8261     0.0184     0.2629 F       
  33 H33           -0.5097    -0.0412     1.4712 H       
  34 H34            1.8304    -0.7422     1.7600 H       
  35 H35            0.6163     2.3467    -1.8923 H       
  36 H36           -2.5880     6.5761    -0.9709 H       
  37 H37           -1.6821     5.4965     0.1164 H       
  38 H38           -1.5085     5.3331    -1.6475 H       
  39 H39            4.1237     1.7238    -1.5338 H       
  40 H40            4.8609     2.8425    -3.3838 H       
  41 H41            3.9475     2.3399    -4.8264 H       
  42 H42            3.6271     3.9222    -4.0769 H       
  43 H43           -5.5555     0.2864    -1.1981 H       
  44 H44           -4.3094    -0.9622    -0.9604 H       
  45 H45           -3.7673    -1.7690     1.2584 H       
  46 H46           -6.7594     1.2164     0.6857 H       
  47 H47           -7.5770     0.8637     2.9757 H       
  48 H48           -3.6872    -3.5974     2.2758 H       
  49 H49           -2.5628    -2.3517     2.8691 H       
  50 H50           -2.9553    -3.7556     3.8905 H       
@<TRIPOS>BOND
   1    1    2 ar
   2    1    6 ar
   3    1    7 1
   4    2    3 ar
   5    2   33 1
   6    3    4 ar
   7    3   34 1
   8    4    5 ar
   9    4   32 1
  10    5    6 ar
  11    5   17 1
  12    6   35 1
  13    7    8 am
  14    7   12 1
  15    8    9 am
  16    8   16 2
  17    9   10 am
  18    9   21 1
  19   10   11 1
  20   10   15 2
  21   11   12 2
  22   11   13 1
  23   13   14 1
  24   14   36 1
  25   14   37 1
  26   14   38 1
  27   17   18 am
  28   17   39 1
  29   18   19 1
  30   18   20 2
  31   19   40 1
  32   19   41 1
  33   19   42 1
  34   21   22 1
  35   21   43 1
  36   21   44 1
  37   22   24 ar
  38   22   23 ar
  39   23   27 ar
  40   23   45 1
  41   24   25 ar
  42   24   46 1
  43   25   26 ar
  44   25   47 1
  45   26   27 ar
  46   26   30 1
  47   27   28 1
  48   28   29 1
  49   29   48 1
  50   29   49 1
  51   29   50 1
  52   30   31 3

#	End of record

