#	Name: ASD03730469
#	Creating user name:	WinNT
#	Creation time:	15. 06. 2019 20:44

#	Modifying user name:	WinNT
#	Modification time:	15. 06. 2019 20:44

#	Program:	/corina/corina34_cracker 3.40 0067  02.08.2006

@<TRIPOS>MOLECULE
ASD03730469
  55   60    0    0    0
SMALL
NO_CHARGES


@<TRIPOS>ATOM
   1 C1            -0.0197     1.5005     0.0379 C.2     
   2 C2            -0.0022    -0.0064     0.0434 C.3     
   3 O3             1.0235     2.1191     0.0451 O.2     
   4 N4            -1.1946     2.1607     0.0195 N.am    
   5 O5             6.2076     2.8839     2.2287 O.3     
   6 C6             7.6235     2.8271     2.4838 C.3     
   7 O7             7.8239     1.5014     3.0084 O.3     
   8 C8             6.8211     0.7421     2.4767 C.ar    
   9 C9             5.8270     1.5928     1.9983 C.ar    
  10 C10            6.6740    -0.6283     2.3594 C.ar    
  11 C11            5.5360    -1.1672     1.7667 C.ar    
  12 C12            4.5462    -0.3076     1.3001 C.ar    
  13 C13            4.6926     1.0595     1.4101 C.ar    
  14 O14            5.2055    -2.4708     1.5396 O.3     
  15 C15            3.4484    -1.1771     0.7481 C.3     
  16 C16            3.7877    -2.5672     1.3030 C.3     
  17 N17            1.3845    -0.4786     0.0575 N.am    
  18 C18            2.0866    -0.7177     1.1831 C.2     
  19 C19            3.4115    -1.1668    -0.7514 C.ar    
  20 C20            4.3306    -1.4796    -1.7279 C.ar    
  21 C21            3.9881    -1.3670    -3.0636 C.ar    
  22 C22            2.7209    -0.9389    -3.4154 C.ar    
  23 C23            1.7970    -0.6235    -2.4410 C.ar    
  24 C24            2.1330    -0.7343    -1.0940 C.ar    
  25 O25            1.6950    -0.5876     2.3236 O.2     
  26 C26           -1.2153     3.5552     0.1328 C.ar    
  27 C27           -2.1868     4.2930    -0.5313 C.ar    
  28 C28           -2.2045     5.6691    -0.4175 C.ar    
  29 C29           -1.2563     6.3127     0.3567 C.ar    
  30 C30           -0.2876     5.5812     1.0186 C.ar    
  31 C31           -0.2682     4.2039     0.9138 C.ar    
  32 C32           -3.2579     6.4705    -1.1380 C.3     
  33 C33           -3.2201     3.5926    -1.3755 C.3     
  34 H34           -0.5198    -0.3725     0.9301 H       
  35 H35           -0.5038    -0.3788    -0.8498 H       
  36 H36           -2.0258     1.6692    -0.0724 H       
  37 H37            8.1849     2.9621     1.5593 H       
  38 H38            7.9103     3.5778     3.2202 H       
  39 H39            7.4475    -1.2845     2.7302 H       
  40 H40            3.9203     1.7157     1.0367 H       
  41 H41            3.5697    -3.3414     0.5674 H       
  42 H42            3.2517    -2.7539     2.2336 H       
  43 H43            5.3196    -1.8135    -1.4508 H       
  44 H44            4.7084    -1.6131    -3.8297 H       
  45 H45            2.4536    -0.8508    -4.4581 H       
  46 H46            0.8097    -0.2894    -2.7237 H       
  47 H47           -1.2722     7.3891     0.4441 H       
  48 H48            0.4517     6.0867     1.6221 H       
  49 H49            0.4856     3.6327     1.4352 H       
  50 H50           -4.1291     6.5881    -0.4935 H       
  51 H51           -2.8578     7.4524    -1.3909 H       
  52 H52           -3.5488     5.9506    -2.0508 H       
  53 H53           -4.0863     3.3478    -0.7607 H       
  54 H54           -3.5270     4.2470    -2.1914 H       
  55 H55           -2.7945     2.6765    -1.7849 H       
@<TRIPOS>BOND
   1    1    2 1
   2    1    3 2
   3    1    4 am
   4    2   17 1
   5    2   34 1
   6    2   35 1
   7    4   26 1
   8    4   36 1
   9    5    6 1
  10    5    9 1
  11    6    7 1
  12    6   37 1
  13    6   38 1
  14    7    8 1
  15    8    9 ar
  16    8   10 ar
  17    9   13 ar
  18   10   11 ar
  19   10   39 1
  20   11   12 ar
  21   11   14 1
  22   12   13 ar
  23   12   15 1
  24   13   40 1
  25   14   16 1
  26   15   16 1
  27   15   18 1
  28   15   19 1
  29   16   41 1
  30   16   42 1
  31   17   18 am
  32   17   24 1
  33   18   25 2
  34   19   20 ar
  35   19   24 ar
  36   20   21 ar
  37   20   43 1
  38   21   22 ar
  39   21   44 1
  40   22   23 ar
  41   22   45 1
  42   23   24 ar
  43   23   46 1
  44   26   27 ar
  45   26   31 ar
  46   27   28 ar
  47   27   33 1
  48   28   29 ar
  49   28   32 1
  50   29   30 ar
  51   29   47 1
  52   30   31 ar
  53   30   48 1
  54   31   49 1
  55   32   50 1
  56   32   51 1
  57   32   52 1
  58   33   53 1
  59   33   54 1
  60   33   55 1

#	End of record

