#	Name: ASD04591148
#	Creating user name:	WinNT
#	Creation time:	15. 06. 2019 20:52

#	Modifying user name:	WinNT
#	Modification time:	15. 06. 2019 20:52

#	Program:	/corina/corina34_cracker 3.40 0067  02.08.2006

@<TRIPOS>MOLECULE
ASD04591148
  62   67    0    0    0
SMALL
NO_CHARGES


@<TRIPOS>ATOM
   1 N1            -0.0170     1.3232    -0.0112 N.ar    
   2 C2             0.0017    -0.0035    -0.0049 C.ar    
   3 N3             1.1299    -0.6949    -0.0117 N.ar    
   4 C4             2.3050    -0.0729    -0.0259 C.ar    
   5 C5             2.3189     1.3365    -0.0334 C.ar    
   6 C6             1.1072     2.0202    -0.0253 C.ar    
   7 N7             3.6031    -0.5196    -0.0356 N.pl3   
   8 C8             4.4823     0.5495    -0.0493 C.ar    
   9 C9             3.7312     1.7384    -0.0486 C.ar    
  10 C10            5.8681     0.6418    -0.0623 C.ar    
  11 N11            6.4613     1.8180    -0.0731 N.ar    
  12 C12            5.7851     2.9532    -0.0727 C.ar    
  13 C13            4.4064     2.9584    -0.0612 C.ar    
  14 N14           -1.2019    -0.6887     0.0098 N.pl3   
  15 C15           -2.4021     0.0122     0.1304 C.ar    
  16 C16            4.0018    -1.9293    -0.0315 C.3     
  17 N17           -2.3872     1.3236     0.3315 N.ar    
  18 C18           -3.5235     1.9874     0.4452 C.ar    
  19 C19           -4.7355     1.3117     0.3541 C.ar    
  20 N20           -4.7503     0.0000     0.1529 N.ar    
  21 C21           -3.6138    -0.6627     0.0340 C.ar    
  22 N22           -5.9340     2.0116     0.4745 N.3     
  23 C23            3.4004    -2.6449     1.1957 C.3     
  24 C24            3.4384    -2.6400    -1.2746 C.3     
  25 C25            2.5144    -3.7627    -0.7594 C.3     
  26 C26            2.1010    -3.2941     0.6579 C.3     
  27 C27           -7.0863     1.1084     0.3477 C.3     
  28 C28           -8.3780     1.9003     0.5645 C.3     
  29 N29           -8.4540     2.9878    -0.4210 N.3     
  30 C30           -7.3017     3.8910    -0.2942 C.3     
  31 C31           -6.0100     3.0991    -0.5110 C.3     
  32 C32           -9.5813     0.9710     0.3930 C.3     
  33 C33           -7.4036     4.9989    -1.3445 C.3     
  34 H34            1.0849     3.0999    -0.0311 H       
  35 H35            6.4645    -0.2586    -0.0631 H       
  36 H36            6.3204     3.8911    -0.0819 H       
  37 H37            3.8597     3.8898    -0.0610 H       
  38 H38           -1.2103    -1.6559    -0.0636 H       
  39 H39            5.0887    -2.0096    -0.0159 H       
  40 H40           -3.5113     3.0548     0.6093 H       
  41 H41           -3.6258    -1.7301    -0.1301 H       
  42 H42            4.0843    -3.4093     1.5647 H       
  43 H43            3.1704    -1.9258     1.9819 H       
  44 H44            2.8684    -1.9360    -1.8809 H       
  45 H45            4.2519    -3.0660    -1.8618 H       
  46 H46            1.6378    -3.8594    -1.4000 H       
  47 H47            3.0552    -4.7076    -0.7062 H       
  48 H48            1.8091    -4.1433     1.2757 H       
  49 H49            1.2967    -2.5605     0.6029 H       
  50 H50           -7.0938     0.6660    -0.6484 H       
  51 H51           -7.0137     0.3191     1.0959 H       
  52 H52           -8.3828     2.3200     1.5704 H       
  53 H53           -8.5252     2.6219    -1.3586 H       
  54 H54           -7.2942     4.3334     0.7020 H       
  55 H55           -5.1528     3.7612    -0.3888 H       
  56 H56           -6.0053     2.6794    -1.5169 H       
  57 H57           -9.5236     0.1634     1.1227 H       
  58 H58          -10.5010     1.5352     0.5474 H       
  59 H59           -9.5765     0.5523    -0.6134 H       
  60 H60           -8.3245     5.5614    -1.1910 H       
  61 H61           -6.5488     5.6686    -1.2502 H       
  62 H62           -7.4100     4.5560    -2.3404 H       
@<TRIPOS>BOND
   1    1    2 ar
   2    1    6 ar
   3    2    3 ar
   4    2   14 1
   5    3    4 ar
   6    4    5 ar
   7    4    7 1
   8    5    6 ar
   9    5    9 1
  10    6   34 1
  11    7    8 1
  12    7   16 1
  13    8    9 ar
  14    8   10 ar
  15    9   13 ar
  16   10   11 ar
  17   10   35 1
  18   11   12 ar
  19   12   13 ar
  20   12   36 1
  21   13   37 1
  22   14   15 1
  23   14   38 1
  24   15   17 ar
  25   15   21 ar
  26   16   24 1
  27   16   23 1
  28   16   39 1
  29   17   18 ar
  30   18   19 ar
  31   18   40 1
  32   19   20 ar
  33   19   22 1
  34   20   21 ar
  35   21   41 1
  36   22   27 1
  37   22   31 1
  38   23   26 1
  39   23   42 1
  40   23   43 1
  41   24   25 1
  42   24   44 1
  43   24   45 1
  44   25   26 1
  45   25   46 1
  46   25   47 1
  47   26   48 1
  48   26   49 1
  49   27   28 1
  50   27   50 1
  51   27   51 1
  52   28   29 1
  53   28   32 1
  54   28   52 1
  55   29   30 1
  56   29   53 1
  57   30   31 1
  58   30   33 1
  59   30   54 1
  60   31   55 1
  61   31   56 1
  62   32   57 1
  63   32   58 1
  64   32   59 1
  65   33   60 1
  66   33   61 1
  67   33   62 1

#	End of record

