#	Name: ASD01914189
#	Creating user name:	WinNT
#	Creation time:	15. 06. 2019 20:03

#	Modifying user name:	WinNT
#	Modification time:	15. 06. 2019 20:03

#	Program:	/corina/corina34_cracker 3.40 0067  02.08.2006

@<TRIPOS>MOLECULE
ASD01914189
  36   37    0    0    0
SMALL
NO_CHARGES


@<TRIPOS>ATOM
   1 C1            -0.0224     1.4746     0.0050 C.2     
   2 C2             0.0075    -0.0036     0.0006 C.ar    
   3 C3             0.9996    -0.6823    -0.7086 C.ar    
   4 C4             1.0215    -2.0638    -0.7084 C.ar    
   5 C5             0.0608    -2.7739    -0.0057 C.ar    
   6 C6            -0.9241    -2.1053     0.6984 C.ar    
   7 C7            -0.9529    -0.7258     0.7104 C.ar    
   8 O8             1.0177     2.1035    -0.0099 O.2     
   9 N9            -1.2029     2.1247     0.0198 N.am    
  10 C10           -1.2339     3.5841     0.1439 C.3     
  11 C11           -1.1949     4.2154    -1.2493 C.3     
  12 C12           -1.2260     5.6818    -1.1246 C.1     
  13 C13           -1.2508     6.8513    -1.0252 C.1     
  14 C14           -1.2811     8.2778    -0.9039 C.ar    
  15 C15           -1.2540     9.0710    -2.0516 C.ar    
  16 C16           -1.2838    10.4476    -1.9177 C.ar    
  17 C17           -1.3399    10.9885    -0.6405 C.ar    
  18 C18           -1.3642    10.1438     0.4539 C.ar    
  19 N19           -1.3403     8.8356     0.2998 N.ar    
  20 C20           -2.4551     1.3720    -0.0882 C.3     
  21 F21            1.9804    -2.7234    -1.3944 F       
  22 H22            1.7480    -0.1290    -1.2565 H       
  23 H23            0.0811    -3.8537    -0.0083 H       
  24 H24           -1.6698    -2.6644     1.2439 H       
  25 H25           -1.7203    -0.2057     1.2645 H       
  26 H26           -2.1485     3.8861     0.6541 H       
  27 H27           -0.3700     3.9183     0.7185 H       
  28 H28           -0.2802     3.9135    -1.7595 H       
  29 H29           -2.0587     3.8812    -1.8239 H       
  30 H30           -1.2099     8.6167    -3.0304 H       
  31 H31           -1.2636    11.0874    -2.7876 H       
  32 H32           -1.3639    12.0594    -0.5028 H       
  33 H33           -1.4074    10.5621     1.4486 H       
  34 H34           -2.7569     1.0252     0.9001 H       
  35 H35           -3.2319     2.0162    -0.5000 H       
  36 H36           -2.3081     0.5146    -0.7450 H       
@<TRIPOS>BOND
   1    1    2 1
   2    1    8 2
   3    1    9 am
   4    2    3 ar
   5    2    7 ar
   6    3    4 ar
   7    3   22 1
   8    4    5 ar
   9    4   21 1
  10    5    6 ar
  11    5   23 1
  12    6    7 ar
  13    6   24 1
  14    7   25 1
  15    9   10 1
  16    9   20 1
  17   10   11 1
  18   10   26 1
  19   10   27 1
  20   11   12 1
  21   11   28 1
  22   11   29 1
  23   12   13 3
  24   13   14 1
  25   14   15 ar
  26   14   19 ar
  27   15   16 ar
  28   15   30 1
  29   16   17 ar
  30   16   31 1
  31   17   18 ar
  32   17   32 1
  33   18   19 ar
  34   18   33 1
  35   20   34 1
  36   20   35 1
  37   20   36 1

#	End of record

