#	Name: ASD08150676
#	Creating user name:	WinNT
#	Creation time:	15. 06. 2019 21:16

#	Modifying user name:	WinNT
#	Modification time:	15. 06. 2019 21:16

#	Program:	/corina/corina34_cracker 3.40 0067  02.08.2006

@<TRIPOS>MOLECULE
ASD08150676
  57   60    0    0    0
SMALL
NO_CHARGES


@<TRIPOS>ATOM
   1 C1            -0.0184     1.5028     0.0103 C.2     
   2 C2             0.0021    -0.0041     0.0020 C.3     
   3 O3             1.0197     2.1211     0.0037 O.2     
   4 O4            -1.1898     2.1580     0.0194 O.3     
   5 F5             1.3272    -0.4524    -0.0130 F       
   6 F6            -0.6401    -0.4855     1.1479 F       
   7 F7            -0.6619    -0.4732    -1.1365 F       
   8 H8            -1.1523     3.1243     0.0245 H       
   9 C9             8.5212    16.4547    10.9293 C.2     
  10 N10            8.5380    15.1252    11.0221 N.2     
  11 C11            9.6711    14.4520    11.1092 C.2     
  12 C12           10.8867    15.1341    11.1052 C.2     
  13 C13           10.8720    16.5415    11.0072 C.2     
  14 N14            9.6829    17.1758    10.9203 N.am    
  15 C15            7.2878    17.1239    10.8334 C.2     
  16 C16            7.2677    18.4835    10.7384 C.2     
  17 C17            8.4755    19.1949    10.7376 C.2     
  18 C18            9.6521    18.5345    10.8246 C.2     
  19 O19           11.9150    17.1743    11.0013 O.2     
  20 C20            9.6496    12.9487    11.2131 C.3     
  21 C21            8.9870    12.5379    12.5295 C.3     
  22 N22            8.8910    12.3924    10.0900 N.pl3   
  23 N23            7.4406    11.0000     7.7644 N.2     
  24 C24            7.1244    10.0660     6.9152 C.2     
  25 N25            7.8856     8.9572     7.1375 N.pl3   
  26 C26            8.7194     9.2352     8.1909 C.ar    
  27 N27            9.6611     8.5634     8.8451 N.ar    
  28 C28           10.3087     9.1196     9.8473 C.ar    
  29 N29           10.0638    10.3523    10.2524 N.ar    
  30 C30            9.1400    11.1012     9.6588 C.ar    
  31 C31            8.4221    10.5514     8.5834 C.ar    
  32 C32           10.9441    19.3102    10.8171 C.3     
  33 C33           12.1674    14.3966    11.2025 C.ar    
  34 C34           13.0672    14.4129    10.1369 C.ar    
  35 C35           14.2604    13.7228    10.2340 C.ar    
  36 C36           14.5623    13.0161    11.3874 C.ar    
  37 C37           13.6726    12.9972    12.4458 C.ar    
  38 C38           12.4807    13.6879    12.3623 C.ar    
  39 F39           15.1335    13.7365     9.2031 F       
  40 H40            6.3638    16.5648    10.8347 H       
  41 H41            6.3272    19.0093    10.6638 H       
  42 H42            8.4665    20.2722    10.6626 H       
  43 H43           10.6706    12.5680    11.1860 H       
  44 H44            7.9660    12.9186    12.5566 H       
  45 H45            8.9714    11.4506    12.6047 H       
  46 H46            9.5514    12.9518    13.3651 H       
  47 H47            8.2142    12.9291     9.6487 H       
  48 H48            6.3697    10.1558     6.1479 H       
  49 H49            7.8450     8.1243     6.6420 H       
  50 H50           11.0682     8.5460    10.3576 H       
  51 H51           11.5515    18.9961     9.9682 H       
  52 H52           10.7279    20.3753    10.7348 H       
  53 H53           11.4874    19.1201    11.7427 H       
  54 H54           12.8317    14.9633     9.2380 H       
  55 H55           15.4959    12.4778    11.4596 H       
  56 H56           13.9131    12.4444    13.3420 H       
  57 H57           11.7896    13.6761    13.1920 H       
@<TRIPOS>BOND
   1    1    2 1
   2    1    3 2
   3    1    4 1
   4    2    5 1
   5    2    6 1
   6    2    7 1
   7    4    8 1
   8    9   10 2
   9    9   14 1
  10    9   15 1
  11   10   11 1
  12   11   12 2
  13   11   20 1
  14   12   13 1
  15   12   33 1
  16   13   14 am
  17   13   19 2
  18   14   18 1
  19   15   16 2
  20   15   40 1
  21   16   17 1
  22   16   41 1
  23   17   18 2
  24   17   42 1
  25   18   32 1
  26   20   21 1
  27   20   22 1
  28   20   43 1
  29   21   44 1
  30   21   45 1
  31   21   46 1
  32   22   30 1
  33   22   47 1
  34   23   24 2
  35   23   31 1
  36   24   25 1
  37   24   48 1
  38   25   26 1
  39   25   49 1
  40   26   27 ar
  41   26   31 ar
  42   27   28 ar
  43   28   29 ar
  44   28   50 1
  45   29   30 ar
  46   30   31 ar
  47   32   51 1
  48   32   52 1
  49   32   53 1
  50   33   34 ar
  51   33   38 ar
  52   34   35 ar
  53   34   54 1
  54   35   36 ar
  55   35   39 1
  56   36   37 ar
  57   36   55 1
  58   37   38 ar
  59   37   56 1
  60   38   57 1

#	End of record

