#	Name: ASD01940264
#	Creating user name:	WinNT
#	Creation time:	15. 06. 2019 20:12

#	Modifying user name:	WinNT
#	Modification time:	15. 06. 2019 20:12

#	Program:	/corina/corina34_cracker 3.40 0067  02.08.2006

@<TRIPOS>MOLECULE
ASD01940264
  46   48    0    0    0
SMALL
NO_CHARGES


@<TRIPOS>ATOM
   1 N1            -0.0648     2.0209     0.2136 N.pl3   
   2 C2            -0.2006     0.6534     0.3003 C.2     
   3 C3             1.0673     0.1091     0.2824 C.2     
   4 C4             1.9672     1.1743     0.1833 C.2     
   5 C5             1.2488     2.3223     0.1435 C.2     
   6 C6            -1.4606    -0.0880     0.3944 C.2     
   7 O7            -1.4479    -1.3021     0.4661 O.2     
   8 O8            -2.6348     0.5758     0.4015 O.3     
   9 C9            -1.1648     2.9883     0.1942 C.3     
  10 S10            1.9209     3.9464     0.0198 S.o2    
  11 O11            2.1621     4.1766    -1.3616 O.2     
  12 O12            1.0934     4.7848     0.8145 O.2     
  13 N13            3.4043     3.9204     0.7555 N.am    
  14 C14            4.4144     3.0815     0.2663 C.ar    
  15 C15            5.3004     2.4664     1.1500 C.ar    
  16 C16            6.2989     1.6359     0.6599 C.ar    
  17 C17            6.4121     1.4208    -0.7048 C.ar    
  18 C18            5.5316     2.0328    -1.5799 C.ar    
  19 C19            4.5312     2.8569    -1.0968 C.ar    
  20 N20            5.1835     2.6865     2.5293 N.pl3   
  21 C21            6.2639     2.4151     3.3747 C.ar    
  22 C22            7.3628     3.2683     3.3978 C.ar    
  23 C23            8.4284     2.9967     4.2352 C.ar    
  24 C24            8.4024     1.8776     5.0490 C.ar    
  25 C25            7.3114     1.0281     5.0272 C.ar    
  26 C26            6.2400     1.2969     4.1970 C.ar    
  27 I27           10.0199     1.4692     6.3163 I       
  28 F28            7.3884     4.3603     2.6026 F       
  29 F29            7.3839     0.6125    -1.1817 F       
  30 F30            7.1600     1.0381     1.5122 F       
  31 C31           -3.8433    -0.2235     0.4970 C.3     
  32 H32            1.3170    -0.9403     0.3352 H       
  33 H33            3.0437     1.0961     0.1456 H       
  34 H34           -1.4013     3.2900     1.2145 H       
  35 H35           -0.8687     3.8636    -0.3841 H       
  36 H36           -2.0427     2.5312    -0.2623 H       
  37 H37            3.5739     4.4860     1.5251 H       
  38 H38            5.6234     1.8633    -2.6425 H       
  39 H39            3.8430     3.3289    -1.7823 H       
  40 H40            4.3532     3.0270     2.8974 H       
  41 H41            9.2821     3.6580     4.2543 H       
  42 H42            7.2950     0.1553     5.6632 H       
  43 H43            5.3868     0.6350     4.1845 H       
  44 H44           -3.8968    -0.9042    -0.3527 H       
  45 H45           -3.8264    -0.7986     1.4227 H       
  46 H46           -4.7139     0.4323     0.4925 H       
@<TRIPOS>BOND
   1    1    2 1
   2    1    5 1
   3    1    9 1
   4    2    3 2
   5    2    6 1
   6    3    4 1
   7    3   32 1
   8    4    5 2
   9    4   33 1
  10    5   10 1
  11    6    7 2
  12    6    8 1
  13    8   31 1
  14    9   34 1
  15    9   35 1
  16    9   36 1
  17   10   11 2
  18   10   12 2
  19   10   13 am
  20   13   14 1
  21   13   37 1
  22   14   15 ar
  23   14   19 ar
  24   15   16 ar
  25   15   20 1
  26   16   17 ar
  27   16   30 1
  28   17   18 ar
  29   17   29 1
  30   18   19 ar
  31   18   38 1
  32   19   39 1
  33   20   21 1
  34   20   40 1
  35   21   22 ar
  36   21   26 ar
  37   22   23 ar
  38   22   28 1
  39   23   24 ar
  40   23   41 1
  41   24   25 ar
  42   24   27 1
  43   25   26 ar
  44   25   42 1
  45   26   43 1
  46   31   44 1
  47   31   45 1
  48   31   46 1

#	End of record

