#	Name: ASD01916933
#	Creating user name:	WinNT
#	Creation time:	15. 06. 2019 20:08

#	Modifying user name:	WinNT
#	Modification time:	15. 06. 2019 20:08

#	Program:	/corina/corina34_cracker 3.40 0067  02.08.2006

@<TRIPOS>MOLECULE
ASD01916933
  58   62    0    0    0
SMALL
NO_CHARGES


@<TRIPOS>ATOM
   1 C1            -0.0832     1.5888    -0.0970 C.ar    
   2 C2            -0.1369     0.2220     0.1231 C.ar    
   3 C3             1.0325    -0.5067     0.2686 C.ar    
   4 C4             2.2561     0.1266     0.1947 C.ar    
   5 C5             2.3146     1.5011    -0.0265 C.ar    
   6 C6             1.1361     2.2301    -0.1722 C.ar    
   7 C7             3.6284     2.1867    -0.1062 C.2     
   8 N8             4.8221     1.5960     0.0175 N.2     
   9 N9             3.8078     3.4731    -0.3156 N.2     
  10 N10            5.1940     3.6974    -0.3166 N.pl3   
  11 C11            5.7766     2.4942    -0.1050 C.2     
  12 C12            7.2308     2.2341    -0.0255 C.ar    
  13 C13            5.8752     4.9795    -0.5126 C.3     
  14 C14            6.0502     5.6640     0.8186 C.2     
  15 O15            5.6458     5.1331     1.8313 O.2     
  16 N16            6.6562     6.8661     0.8837 N.am    
  17 C17            6.8372     7.5514     2.1724 C.3     
  18 C18            8.3084     7.9592     2.3045 C.3     
  19 N19            8.7046     8.7398     1.1248 N.3     
  20 C20            8.6126     7.9362    -0.1014 C.3     
  21 C21            7.1593     7.5247    -0.3313 C.3     
  22 C22            9.9822     9.2655     1.2813 C.ar    
  23 C23           10.2278    10.2444     2.2574 C.ar    
  24 C24           11.0230     8.8211     0.4770 C.ar    
  25 C25           11.5160    10.7642     2.4041 C.ar    
  26 C26           12.5353    10.3146     1.5924 C.ar    
  27 C27           12.2908     9.3446     0.6342 C.ar    
  28 C28            8.1156     3.2801     0.2387 C.ar    
  29 C29            9.4703     3.0324     0.3118 C.ar    
  30 C30            9.9534     1.7472     0.1230 C.ar    
  31 C31            9.0788     0.7049    -0.1401 C.ar    
  32 C32            7.7217     0.9409    -0.2086 C.ar    
  33 F33           11.2814     1.5098     0.1952 F       
  34 F34           -1.3329    -0.4020     0.1965 F       
  35 C35            9.1641    10.7073     3.0970 C.1     
  36 N36            8.3204    11.0746     3.7631 N.1     
  37 H37           -0.9970     2.1524    -0.2143 H       
  38 H38            0.9862    -1.5720     0.4404 H       
  39 H39            3.1671    -0.4421     0.3086 H       
  40 H40            1.1770     3.2956    -0.3441 H       
  41 H41            6.8524     4.8066    -0.9635 H       
  42 H42            5.2782     5.6113    -1.1702 H       
  43 H43            6.2065     8.4397     2.2065 H       
  44 H44            6.5696     6.8775     2.9863 H       
  45 H45            8.4391     8.5642     3.2017 H       
  46 H46            8.9287     7.0656     2.3744 H       
  47 H47            8.9639     8.5246    -0.9491 H       
  48 H48            9.2286     7.0429     0.0020 H       
  49 H49            7.1029     6.8351    -1.1736 H       
  50 H50            6.5566     8.4091    -0.5376 H       
  51 H51           10.8407     8.0648    -0.2722 H       
  52 H52           11.7130    11.5177     3.1523 H       
  53 H53           13.5308    10.7175     1.7070 H       
  54 H54           13.0961     8.9988     0.0030 H       
  55 H55            7.7402     4.2821     0.3852 H       
  56 H56           10.1560     3.8414     0.5162 H       
  57 H57            9.4602    -0.2948    -0.2868 H       
  58 H58            7.0409     0.1279    -0.4133 H       
@<TRIPOS>BOND
   1    1    2 ar
   2    1    6 ar
   3    1   37 1
   4    2    3 ar
   5    2   34 1
   6    3    4 ar
   7    3   38 1
   8    4    5 ar
   9    4   39 1
  10    5    6 ar
  11    5    7 1
  12    6   40 1
  13    7    8 1
  14    7    9 2
  15    8   11 2
  16    9   10 1
  17   10   11 1
  18   10   13 1
  19   11   12 1
  20   12   28 ar
  21   12   32 ar
  22   13   14 1
  23   13   41 1
  24   13   42 1
  25   14   15 2
  26   14   16 am
  27   16   17 1
  28   16   21 1
  29   17   18 1
  30   17   43 1
  31   17   44 1
  32   18   19 1
  33   18   45 1
  34   18   46 1
  35   19   20 1
  36   19   22 1
  37   20   21 1
  38   20   47 1
  39   20   48 1
  40   21   49 1
  41   21   50 1
  42   22   23 ar
  43   22   24 ar
  44   23   25 ar
  45   23   35 1
  46   24   27 ar
  47   24   51 1
  48   25   26 ar
  49   25   52 1
  50   26   27 ar
  51   26   53 1
  52   27   54 1
  53   28   29 ar
  54   28   55 1
  55   29   30 ar
  56   29   56 1
  57   30   31 ar
  58   30   33 1
  59   31   32 ar
  60   31   57 1
  61   32   58 1
  62   35   36 3

#	End of record

