#	Name: ASD03730705
#	Creating user name:	WinNT
#	Creation time:	15. 06. 2019 20:44

#	Modifying user name:	WinNT
#	Modification time:	15. 06. 2019 20:44

#	Program:	/corina/corina34_cracker 3.40 0067  02.08.2006

@<TRIPOS>MOLECULE
ASD03730705
  59   65    0    0    0
SMALL
NO_CHARGES


@<TRIPOS>ATOM
   1 C1             1.3719    -1.2055    -2.4857 C.2     
   2 C2             0.4782    -1.1521    -1.3095 C.ar    
   3 C3             0.7357    -0.2522    -0.2736 C.ar    
   4 C4            -0.1022    -0.2076     0.8211 C.ar    
   5 C5            -1.1957    -1.0525     0.8943 C.ar    
   6 C6            -1.4563    -1.9468    -0.1285 C.ar    
   7 C7            -0.6299    -1.9971    -1.2323 C.ar    
   8 O8             2.3126    -0.4401    -2.5696 O.2     
   9 N9             1.1470    -2.1064    -3.4625 N.am    
  10 C10            1.9266     0.6680    -0.3512 C.3     
  11 O11            0.1183    -0.7031     6.4709 O.3     
  12 C12            0.0772    -0.3755     7.8724 C.3     
  13 O13            1.3632     0.2218     8.1221 O.3     
  14 C14            1.7553     0.7581     6.9290 C.ar    
  15 C15            0.9901     0.1882     5.9140 C.ar    
  16 C16            2.7183     1.7026     6.6220 C.ar    
  17 C17            2.9316     2.0889     5.3022 C.ar    
  18 C18            2.1667     1.5065     4.2961 C.ar    
  19 C19            1.2016     0.5690     4.5995 C.ar    
  20 O20            3.8060     3.0027     4.7917 O.3     
  21 C21            2.6438     2.0990     2.9972 C.3     
  22 C22            3.9727     2.7641     3.3808 C.3     
  23 N23            2.0412     1.4247     0.8980 N.am    
  24 C24            2.8261     1.0578     1.9307 C.2     
  25 C25            1.6682     3.0856     2.4273 C.ar    
  26 C26            1.1034     4.2480     2.9025 C.ar    
  27 C27            0.2122     4.9571     2.1169 C.ar    
  28 C28           -0.1103     4.4952     0.8538 C.ar    
  29 C29            0.4521     3.3308     0.3737 C.ar    
  30 C30            1.3505     2.6108     1.1574 C.ar    
  31 O31            3.5400     0.0789     1.9872 O.2     
  32 C32            1.8761    -2.0419    -4.6554 C.ar    
  33 C33            1.3677    -2.6163    -5.8130 C.ar    
  34 C34            2.0889    -2.5515    -6.9891 C.ar    
  35 C35            3.3181    -1.9143    -7.0145 C.ar    
  36 C36            3.8271    -1.3412    -5.8612 C.ar    
  37 C37            3.1064    -1.3983    -4.6844 C.ar    
  38 F38            4.0219    -1.8520    -8.1660 F       
  39 H39            0.0958     0.4881     1.6231 H       
  40 H40           -1.8484    -1.0137     1.7539 H       
  41 H41           -2.3112    -2.6037    -0.0650 H       
  42 H42           -0.8373    -2.6921    -2.0324 H       
  43 H43            0.4798    -2.7996    -3.3388 H       
  44 H44            2.8312     0.0793    -0.5037 H       
  45 H45            1.7981     1.3591    -1.1842 H       
  46 H46           -0.7221     0.3371     8.0758 H       
  47 H47           -0.0497    -1.2764     8.4727 H       
  48 H48            3.3086     2.1431     7.4119 H       
  49 H49            0.6095     0.1305     3.8099 H       
  50 H50            4.1054     3.7026     2.8425 H       
  51 H51            4.8097     2.0902     3.1983 H       
  52 H52            1.3565     4.6067     3.8893 H       
  53 H53           -0.2303     5.8693     2.4889 H       
  54 H54           -0.8060     5.0486     0.2406 H       
  55 H55            0.1949     2.9762    -0.6135 H       
  56 H56            0.4093    -3.1136    -5.7936 H       
  57 H57            1.6940    -2.9984    -7.8895 H       
  58 H58            4.7861    -0.8450    -5.8831 H       
  59 H59            3.5015    -0.9471    -3.7863 H       
@<TRIPOS>BOND
   1    1    2 1
   2    1    8 2
   3    1    9 am
   4    2    3 ar
   5    2    7 ar
   6    3    4 ar
   7    3   10 1
   8    4    5 ar
   9    4   39 1
  10    5    6 ar
  11    5   40 1
  12    6    7 ar
  13    6   41 1
  14    7   42 1
  15    9   32 1
  16    9   43 1
  17   10   23 1
  18   10   44 1
  19   10   45 1
  20   11   12 1
  21   11   15 1
  22   12   13 1
  23   12   46 1
  24   12   47 1
  25   13   14 1
  26   14   15 ar
  27   14   16 ar
  28   15   19 ar
  29   16   17 ar
  30   16   48 1
  31   17   18 ar
  32   17   20 1
  33   18   19 ar
  34   18   21 1
  35   19   49 1
  36   20   22 1
  37   21   22 1
  38   21   24 1
  39   21   25 1
  40   22   50 1
  41   22   51 1
  42   23   24 am
  43   23   30 1
  44   24   31 2
  45   25   26 ar
  46   25   30 ar
  47   26   27 ar
  48   26   52 1
  49   27   28 ar
  50   27   53 1
  51   28   29 ar
  52   28   54 1
  53   29   30 ar
  54   29   55 1
  55   32   33 ar
  56   32   37 ar
  57   33   34 ar
  58   33   56 1
  59   34   35 ar
  60   34   57 1
  61   35   36 ar
  62   35   38 1
  63   36   37 ar
  64   36   58 1
  65   37   59 1

#	End of record

