#	Name: ASD03731154
#	Creating user name:	WinNT
#	Creation time:	15. 06. 2019 20:45

#	Modifying user name:	WinNT
#	Modification time:	15. 06. 2019 20:45

#	Program:	/corina/corina34_cracker 3.40 0067  02.08.2006

@<TRIPOS>MOLECULE
ASD03731154
  58   64    0    0    0
SMALL
NO_CHARGES


@<TRIPOS>ATOM
   1 O1            -0.0174     1.4356     0.0099 O.3     
   2 C2             0.0021    -0.0041     0.0020 C.3     
   3 O3             1.2461    -0.3262    -0.6470 O.3     
   4 C4             2.0710     0.7345    -0.4034 C.ar    
   5 C5             1.2935     1.8178    -0.0005 C.ar    
   6 C6             3.4452     0.8649    -0.4936 C.ar    
   7 C7             4.0602     2.0747    -0.1856 C.ar    
   8 C8             3.2723     3.1522     0.2076 C.ar    
   9 C9             1.9024     3.0234     0.3045 C.ar    
  10 O10            5.3831     2.4065    -0.1922 O.3     
  11 C11            4.2098     4.3069     0.4393 C.3     
  12 C12            5.5129     3.8410    -0.2242 C.3     
  13 N13            3.6127     6.4762     0.8417 N.am    
  14 C14            3.6993     5.5834    -0.1645 C.2     
  15 C15            4.3992     4.6044     1.8972 C.ar    
  16 C16            4.8378     3.8614     2.9705 C.ar    
  17 C17            4.9039     4.4334     4.2285 C.ar    
  18 C18            4.5284     5.7527     4.4051 C.ar    
  19 C19            4.0877     6.5009     3.3334 C.ar    
  20 C20            4.0181     5.9334     2.0634 C.ar    
  21 O21            3.4201     5.7739    -1.3293 O.2     
  22 C22            3.1483     7.8554     0.6736 C.3     
  23 C23            1.6327     7.9114     0.8755 C.3     
  24 N24            1.1682     9.2906     0.7074 N.pl3   
  25 C25            0.7835     9.7468    -0.5497 C.ar    
  26 C26            0.7425     8.8611    -1.6217 C.ar    
  27 C27            0.3583     9.3280    -2.8656 C.ar    
  28 C28            0.0266    10.6702    -2.9963 C.ar    
  29 C29            0.0895    11.4930    -1.8897 C.ar    
  30 N30            0.4545    11.0187    -0.7136 N.ar    
  31 C31            1.1118    10.1444     1.8047 C.ar    
  32 C32            1.5953     9.7162     3.0369 C.ar    
  33 C33            1.5330    10.5751     4.1192 C.ar    
  34 C34            0.9873    11.8384     3.9322 C.ar    
  35 C35            0.5264    12.1974     2.6814 C.ar    
  36 N36            0.6035    11.3590     1.6654 N.ar    
  37 H37           -0.0105    -0.3928     1.0203 H       
  38 H38           -0.8401    -0.3953    -0.5687 H       
  39 H39            4.0448     0.0222    -0.8046 H       
  40 H40            1.3032     3.8652     0.6186 H       
  41 H41            6.3787     4.1643     0.3536 H       
  42 H42            5.5749     4.2013    -1.2510 H       
  43 H43            5.1300     2.8312     2.8302 H       
  44 H44            5.2475     3.8510     5.0706 H       
  45 H45            4.5803     6.1993     5.3870 H       
  46 H46            3.7954     7.5303     3.4796 H       
  47 H47            3.6366     8.4954     1.4085 H       
  48 H48            3.3941     8.2017    -0.3303 H       
  49 H49            1.1443     7.2714     0.1406 H       
  50 H50            1.3868     7.5650     1.8794 H       
  51 H51            1.0075     7.8231    -1.4845 H       
  52 H52            0.3175     8.6638    -3.7163 H       
  53 H53           -0.2771    11.0663    -3.9540 H       
  54 H54           -0.1672    12.5375    -1.9868 H       
  55 H55            2.0131     8.7264     3.1469 H       
  56 H56            1.9002    10.2702     5.0880 H       
  57 H57            0.9238    12.5327     4.7569 H       
  58 H58            0.1010    13.1787     2.5316 H       
@<TRIPOS>BOND
   1    1    2 1
   2    1    5 1
   3    2    3 1
   4    2   37 1
   5    2   38 1
   6    3    4 1
   7    4    5 ar
   8    4    6 ar
   9    5    9 ar
  10    6    7 ar
  11    6   39 1
  12    7    8 ar
  13    7   10 1
  14    8    9 ar
  15    8   11 1
  16    9   40 1
  17   10   12 1
  18   11   12 1
  19   11   14 1
  20   11   15 1
  21   12   41 1
  22   12   42 1
  23   13   14 am
  24   13   20 1
  25   13   22 1
  26   14   21 2
  27   15   16 ar
  28   15   20 ar
  29   16   17 ar
  30   16   43 1
  31   17   18 ar
  32   17   44 1
  33   18   19 ar
  34   18   45 1
  35   19   20 ar
  36   19   46 1
  37   22   23 1
  38   22   47 1
  39   22   48 1
  40   23   24 1
  41   23   49 1
  42   23   50 1
  43   24   25 1
  44   24   31 1
  45   25   26 ar
  46   25   30 ar
  47   26   27 ar
  48   26   51 1
  49   27   28 ar
  50   27   52 1
  51   28   29 ar
  52   28   53 1
  53   29   30 ar
  54   29   54 1
  55   31   32 ar
  56   31   36 ar
  57   32   33 ar
  58   32   55 1
  59   33   34 ar
  60   33   56 1
  61   34   35 ar
  62   34   57 1
  63   35   36 ar
  64   35   58 1

#	End of record

