#	Name: ASD05303037
#	Creating user name:	WinNT
#	Creation time:	15. 06. 2019 20:58

#	Modifying user name:	WinNT
#	Modification time:	15. 06. 2019 20:58

#	Program:	/corina/corina34_cracker 3.40 0067  02.08.2006

@<TRIPOS>MOLECULE
ASD05303037
  40   43    0    0    0
SMALL
NO_CHARGES


@<TRIPOS>ATOM
   1 C1             0.5215     1.8488    -0.9671 C.ar    
   2 C2             0.4332     0.4969    -1.2405 C.ar    
   3 C3             1.4588    -0.3539    -0.8669 C.ar    
   4 C4             2.5718     0.1527    -0.2196 C.ar    
   5 C5             2.6657     1.5154     0.0546 C.ar    
   6 C6             1.6329     2.3598    -0.3217 C.ar    
   7 O7             3.7592     2.0184     0.6821 O.3     
   8 N8             3.6193    -0.7003     0.1742 N.am    
   9 C9             4.6170     1.1792     1.3165 C.ar    
  10 C10            4.5707    -0.1926     1.0781 C.ar    
  11 C11            5.4503    -1.0433     1.7239 C.ar    
  12 C12            6.3785    -0.5288     2.6121 C.ar    
  13 C13            6.4258     0.8314     2.8527 C.ar    
  14 C14            5.5488     1.6854     2.2091 C.ar    
  15 C15            3.7080    -1.9597    -0.2976 C.2     
  16 O16            2.7026    -2.5548    -0.6350 O.2     
  17 N17            4.9109    -2.5596    -0.3953 N.am    
  18 C18            5.0093    -4.0130    -0.5862 C.3     
  19 C19            5.8815    -4.2911    -1.8146 C.3     
  20 C20            7.2297    -3.5863    -1.6480 C.3     
  21 C21            7.0082    -2.0755    -1.5449 C.3     
  22 C22            6.1487    -1.7717    -0.3191 C.3     
  23 H23           -0.2795     2.5101    -1.2628 H       
  24 H24           -0.4368     0.1041    -1.7457 H       
  25 H25            1.3905    -1.4105    -1.0798 H       
  26 H26            1.6963     3.4172    -0.1113 H       
  27 H27            5.4123    -2.1061     1.5356 H       
  28 H28            7.0661    -1.1905     3.1177 H       
  29 H29            7.1506     1.2292     3.5475 H       
  30 H30            5.5910     2.7474     2.4009 H       
  31 H31            5.4631    -4.4674     0.2945 H       
  32 H32            4.0142    -4.4292    -0.7429 H       
  33 H33            6.0418    -5.3648    -1.9114 H       
  34 H34            5.3824    -3.9152    -2.7078 H       
  35 H35            7.7172    -3.9446    -0.7414 H       
  36 H36            7.8615    -3.8027    -2.5095 H       
  37 H37            7.9704    -1.5724    -1.4498 H       
  38 H38            6.4985    -1.7205    -2.4406 H       
  39 H39            5.9062    -0.7092    -0.2971 H       
  40 H40            6.6932    -2.0431     0.5853 H       
@<TRIPOS>BOND
   1    1    2 ar
   2    1    6 ar
   3    1   23 1
   4    2    3 ar
   5    2   24 1
   6    3    4 ar
   7    3   25 1
   8    4    5 ar
   9    4    8 1
  10    5    6 ar
  11    5    7 1
  12    6   26 1
  13    7    9 1
  14    8   10 1
  15    8   15 am
  16    9   10 ar
  17    9   14 ar
  18   10   11 ar
  19   11   12 ar
  20   11   27 1
  21   12   13 ar
  22   12   28 1
  23   13   14 ar
  24   13   29 1
  25   14   30 1
  26   15   16 2
  27   15   17 am
  28   17   18 1
  29   17   22 1
  30   18   19 1
  31   18   31 1
  32   18   32 1
  33   19   20 1
  34   19   33 1
  35   19   34 1
  36   20   21 1
  37   20   35 1
  38   20   36 1
  39   21   22 1
  40   21   37 1
  41   21   38 1
  42   22   39 1
  43   22   40 1

#	End of record

