#	Name: ASD01190026
#	Creating user name:	WinNT
#	Creation time:	15. 06. 2019 19:07

#	Modifying user name:	WinNT
#	Modification time:	15. 06. 2019 19:07

#	Program:	/corina/corina34_cracker 3.40 0067  02.08.2006

@<TRIPOS>MOLECULE
ASD01190026
  65   69    0    0    0
SMALL
NO_CHARGES


@<TRIPOS>ATOM
   1 C1            -0.0187     1.5279     0.0104 C.3     
   2 C2            -3.6704    -0.2727     5.2518 C.ar    
   3 C3            -2.8791     0.0744     6.3370 C.ar    
   4 C4            -1.5473     0.3974     6.1429 C.ar    
   5 C5            -0.9881     0.3689     4.8721 C.ar    
   6 C6            -1.7903     0.0364     3.7931 C.ar    
   7 C7            -3.1207    -0.2882     3.9846 C.ar    
   8 C8             0.4781     0.6940     4.7504 C.3     
   9 C9             0.9023     0.8916     3.2879 C.3     
  10 C10            0.2744    -0.2542     2.5024 C.3     
  11 C11           -1.2234     0.0606     2.4043 C.3     
  12 C12            0.8419    -0.5731     1.1635 C.3     
  13 C13            0.0021    -0.0041     0.0020 C.3     
  14 C14           -1.4024    -0.5503    -0.0125 C.3     
  15 C15           -1.8896    -0.8712     1.4134 C.3     
  16 C16            2.2439    -0.0435     0.8324 C.3     
  17 C17            2.3219    -0.1989    -0.7119 C.3     
  18 C18            0.8697    -0.4198    -1.2046 C.3     
  19 O19           -3.4115     0.0993     7.5875 O.3     
  20 O20            0.6480    -1.8150    -1.5209 O.3     
  21 C21            0.8783    -2.1979    -2.7909 C.2     
  22 N22            0.6912    -3.4830    -3.1518 N.am    
  23 C23            0.9418    -3.8996    -4.5337 C.3     
  24 C24            0.6554    -5.3959    -4.6752 C.3     
  25 S25            0.9657    -5.9119    -6.3863 S.3     
  26 S26            3.0058    -5.7860    -6.5432 S.3     
  27 C27            3.5482    -7.3408    -5.9161 C.ar    
  28 O28            1.2547    -1.3850    -3.6119 O.2     
  29 N29            3.6964    -8.3661    -6.7415 N.ar    
  30 C30            4.1007    -9.5467    -6.3125 C.ar    
  31 C31            4.3855    -9.7557    -4.9782 C.ar    
  32 C32            4.2431    -8.7063    -4.0793 C.ar    
  33 C33            3.8228    -7.4792    -4.5585 C.ar    
  34 H34            0.9803     1.9060    -0.2066 H       
  35 H35           -0.7153     1.8860    -0.7476 H       
  36 H36           -0.3359     1.8816     0.9915 H       
  37 H37           -4.7135    -0.5222     5.3944 H       
  38 H38           -0.9397     0.6829     6.9895 H       
  39 H39           -3.7463    -0.5483     3.1424 H       
  40 H40            0.6935     1.6050     5.3067 H       
  41 H41            1.0575    -0.1269     5.1729 H       
  42 H42            0.5198     1.8460     2.9315 H       
  43 H43            1.9848     0.8561     3.2108 H       
  44 H44            0.3693    -1.1630     3.1309 H       
  45 H45           -1.3406     1.0878     2.0578 H       
  46 H46            0.8809    -1.6777     1.0538 H       
  47 H47           -2.0778     0.1925    -0.4621 H       
  48 H48           -1.4507    -1.4554    -0.6237 H       
  49 H49           -1.6564    -1.9098     1.6571 H       
  50 H50           -2.9762    -0.7406     1.4564 H       
  51 H51            2.3590     0.9953     1.1266 H       
  52 H52            3.0066    -0.6611     1.3106 H       
  53 H53            2.7368     0.7011    -1.1595 H       
  54 H54            2.9373    -1.0636    -0.9673 H       
  55 H55            0.6449     0.2214    -2.0500 H       
  56 H56           -3.3452    -0.7417     8.0601 H       
  57 H57            0.3907    -4.1319    -2.4965 H       
  58 H58            0.2910    -3.3401    -5.2056 H       
  59 H59            1.9831    -3.7032    -4.7893 H       
  60 H60            1.3063    -5.9555    -4.0033 H       
  61 H61           -0.3858    -5.5923    -4.4196 H       
  62 H62            4.2099   -10.3601    -7.0146 H       
  63 H63            4.7155   -10.7256    -4.6364 H       
  64 H64            4.4597    -8.8446    -3.0303 H       
  65 H65            3.7015    -6.6419    -3.8873 H       
@<TRIPOS>BOND
   1    1   13 1
   2    1   34 1
   3    1   35 1
   4    1   36 1
   5    2    3 ar
   6    2    7 ar
   7    2   37 1
   8    3    4 ar
   9    3   19 1
  10    4    5 ar
  11    4   38 1
  12    5    6 ar
  13    5    8 1
  14    6    7 ar
  15    6   11 1
  16    7   39 1
  17    8    9 1
  18    8   40 1
  19    8   41 1
  20    9   10 1
  21    9   42 1
  22    9   43 1
  23   10   11 1
  24   10   12 1
  25   10   44 1
  26   11   15 1
  27   11   45 1
  28   12   13 1
  29   12   16 1
  30   12   46 1
  31   13   14 1
  32   13   18 1
  33   14   15 1
  34   14   47 1
  35   14   48 1
  36   15   49 1
  37   15   50 1
  38   16   17 1
  39   16   51 1
  40   16   52 1
  41   17   18 1
  42   17   53 1
  43   17   54 1
  44   18   20 1
  45   18   55 1
  46   19   56 1
  47   20   21 1
  48   21   22 am
  49   21   28 2
  50   22   23 1
  51   22   57 1
  52   23   24 1
  53   23   58 1
  54   23   59 1
  55   24   25 1
  56   24   60 1
  57   24   61 1
  58   25   26 1
  59   26   27 1
  60   27   29 ar
  61   27   33 ar
  62   29   30 ar
  63   30   31 ar
  64   30   62 1
  65   31   32 ar
  66   31   63 1
  67   32   33 ar
  68   32   64 1
  69   33   65 1

#	End of record

