#	Name: ASD01882554
#	Creating user name:	WinNT
#	Creation time:	15. 06. 2019 19:44

#	Modifying user name:	WinNT
#	Modification time:	15. 06. 2019 19:44

#	Program:	/corina/corina34_cracker 3.40 0067  02.08.2006

@<TRIPOS>MOLECULE
ASD01882554
  53   56    0    0    0
SMALL
NO_CHARGES


@<TRIPOS>ATOM
   1 C1             0.0717     1.3102     0.5644 C.2     
   2 C2             0.0111    -0.0129     0.0862 C.2     
   3 C3             1.1210    -0.5700    -0.4688 C.2     
   4 C4             2.3072     0.1786    -0.5573 C.2     
   5 C5             2.3505     1.4456    -0.0943 C.2     
   6 N6             1.2451     2.0168     0.4642 N.pl3   
   7 N7            -0.2585     3.2463     1.3918 N.2     
   8 N8            -0.8115     2.1130     1.1353 N.2     
   9 C9             0.9904     3.2399     1.0030 C.2     
  10 C10           -1.2682    -0.8027     0.1888 C.3     
  11 F11           -1.1800    -1.6962     1.2616 F       
  12 F12           -2.3405     0.0715     0.3970 F       
  13 F13           -1.4720    -1.5165    -0.9970 F       
  14 C14            1.9679     4.3802     1.1268 C.3     
  15 C15            1.8949     5.2530    -0.1276 C.3     
  16 C16            2.8874     6.4107    -0.0019 C.3     
  17 C17            1.0790    -1.9846    -0.9866 C.3     
  18 N18            0.7758    -1.9712    -2.4239 N.3     
  19 C19            0.9586    -3.3050    -3.0131 C.3     
  20 C20            0.5575    -3.2668    -4.4897 C.3     
  21 N21            1.3755    -2.2677    -5.1911 N.3     
  22 C22            1.1927    -0.9339    -4.6019 C.3     
  23 C23            1.5938    -0.9721    -3.1254 C.3     
  24 C24            1.0866    -2.2549    -6.5609 C.ar    
  25 C25            0.6114    -1.0940    -7.1618 C.ar    
  26 C26            0.3274    -1.0845    -8.5147 C.ar    
  27 C27            0.5161    -2.2297    -9.2705 C.ar    
  28 C28            0.9889    -3.3855    -8.6736 C.ar    
  29 C29            1.2793    -3.3986    -7.3224 C.ar    
  30 F30            0.2376    -2.2187   -10.5925 F       
  31 F31            0.4271     0.0228    -6.4241 F       
  32 H32            3.1890    -0.2626    -0.9978 H       
  33 H33            3.2674     2.0116    -0.1670 H       
  34 H34            1.7176     4.9800     2.0019 H       
  35 H35            2.9773     3.9833     1.2351 H       
  36 H36            2.1453     4.6533    -1.0027 H       
  37 H37            0.8856     5.6500    -0.2358 H       
  38 H38            2.6371     7.0105     0.8732 H       
  39 H39            3.8968     6.0138     0.1063 H       
  40 H40            2.8354     7.0325    -0.8956 H       
  41 H41            2.0462    -2.4600    -0.8237 H       
  42 H42            0.3063    -2.5424    -0.4574 H       
  43 H43            2.0045    -3.6000    -2.9280 H       
  44 H44            0.3333    -4.0248    -2.4849 H       
  45 H45            0.7197    -4.2479    -4.9360 H       
  46 H46           -0.4956    -2.9984    -4.5736 H       
  47 H47            1.8180    -0.2141    -5.1301 H       
  48 H48            0.1468    -0.6389    -4.6871 H       
  49 H49            1.4316     0.0090    -2.6790 H       
  50 H50            2.6469    -1.2405    -3.0415 H       
  51 H51           -0.0420    -0.1838    -8.9825 H       
  52 H52            1.1351    -4.2771    -9.2653 H       
  53 H53            1.6520    -4.3000    -6.8587 H       
@<TRIPOS>BOND
   1    1    2 1
   2    1    6 1
   3    1    8 2
   4    2    3 2
   5    2   10 1
   6    3    4 1
   7    3   17 1
   8    4    5 2
   9    4   32 1
  10    5    6 1
  11    5   33 1
  12    6    9 1
  13    7    8 1
  14    7    9 2
  15    9   14 1
  16   10   11 1
  17   10   12 1
  18   10   13 1
  19   14   15 1
  20   14   34 1
  21   14   35 1
  22   15   16 1
  23   15   36 1
  24   15   37 1
  25   16   38 1
  26   16   39 1
  27   16   40 1
  28   17   18 1
  29   17   41 1
  30   17   42 1
  31   18   19 1
  32   18   23 1
  33   19   20 1
  34   19   43 1
  35   19   44 1
  36   20   21 1
  37   20   45 1
  38   20   46 1
  39   21   22 1
  40   21   24 1
  41   22   23 1
  42   22   47 1
  43   22   48 1
  44   23   49 1
  45   23   50 1
  46   24   25 ar
  47   24   29 ar
  48   25   26 ar
  49   25   31 1
  50   26   27 ar
  51   26   51 1
  52   27   28 ar
  53   27   30 1
  54   28   29 ar
  55   28   52 1
  56   29   53 1

#	End of record

