#	Name: ASD08150670
#	Creating user name:	WinNT
#	Creation time:	15. 06. 2019 21:16

#	Modifying user name:	WinNT
#	Modification time:	15. 06. 2019 21:16

#	Program:	/corina/corina34_cracker 3.40 0067  02.08.2006

@<TRIPOS>MOLECULE
ASD08150670
  83   90    0    0    0
SMALL
NO_CHARGES


@<TRIPOS>ATOM
   1 N1             0.1479     1.6110     0.0125 N.am    
   2 C2             0.6470     0.9458     1.0702 C.2     
   3 C3             1.9203     0.3440     1.0285 C.2     
   4 C4             2.6778     0.4262    -0.0967 C.2     
   5 C5             2.1384     1.1478    -1.2467 C.ar    
   6 C6             2.8649     1.2738    -2.4448 C.ar    
   7 N7             2.3731     1.9220    -3.4688 N.ar    
   8 C8             1.1617     2.4979    -3.4387 C.ar    
   9 C9             0.3606     2.4204    -2.2726 C.ar    
  10 C10            0.8635     1.7269    -1.1471 C.ar    
  11 C11           -0.9001     3.0247    -2.2522 C.ar    
  12 C12           -1.3537     3.6951    -3.3767 C.ar    
  13 C13           -0.5556     3.7672    -4.5272 C.ar    
  14 C14            0.6728     3.1849    -4.5621 C.ar    
  15 O15           -0.0178     0.8622     2.0887 O.2     
  16 C16           -2.6897     4.3388    -3.3636 C.ar    
  17 C17           -1.1232     2.1871     0.0983 C.ar    
  18 C18           -1.2522     3.5573     0.2964 C.ar    
  19 C19           -2.5037     4.1275     0.3813 C.ar    
  20 C20           -3.6420     3.3289     0.2678 C.ar    
  21 C21           -3.5099     1.9549     0.0687 C.ar    
  22 C22           -2.2557     1.3900    -0.0204 C.ar    
  23 C23           -4.9892     3.9396     0.3592 C.ar    
  24 C24           -3.5572     4.1454    -2.2768 C.ar    
  25 C25           -5.3112     4.7594     1.4416 C.ar    
  26 C26           -6.5623     5.3266     1.5276 C.ar    
  27 C27           -7.5100     5.0816     0.5305 C.ar    
  28 C28           -7.1865     4.2609    -0.5531 C.ar    
  29 C29           -5.9331     3.6989    -0.6400 C.ar    
  30 N30           -4.7419     4.7006    -2.2386 N.ar    
  31 C31           -5.1848     5.4793    -3.2313 C.ar    
  32 C32           -4.3671     5.7233    -4.3635 C.ar    
  33 C33           -3.0892     5.1413    -4.4226 C.ar    
  34 C34           -6.4608     6.0665    -3.1725 C.ar    
  35 C35           -6.8902     6.8552    -4.1952 C.ar    
  36 C36           -6.0849     7.0934    -5.3073 C.ar    
  37 C37           -4.8435     6.5428    -5.4009 C.ar    
  38 C38           -8.8530     5.6894     0.6221 C.2     
  39 N39           -9.7667     5.4528    -0.3399 N.am    
  40 O40           -9.1342     6.4031     1.5653 O.2     
  41 C41          -11.0989     6.0556    -0.2491 C.3     
  42 C42          -11.7023     6.1770    -1.6511 C.3     
  43 C43          -12.0035     5.1702     0.6125 C.3     
  44 C44          -13.4095     5.7731     0.6536 C.3     
  45 N45          -13.9431     5.8676    -0.7112 N.3     
  46 C46          -13.1170     6.7507    -1.5444 C.3     
  47 C47          -15.3430     6.3127    -0.6995 C.3     
  48 C48           -4.7373     1.0892    -0.0538 C.3     
  49 F49           -4.3590    -0.2577    -0.0634 F       
  50 F50           -5.5863     1.3274     1.0323 F       
  51 F51           -5.4061     1.3941    -1.2442 F       
  52 H52            2.2953    -0.1837     1.8929 H       
  53 H53            3.6555    -0.0307    -0.1396 H       
  54 H54            3.8457     0.8279    -2.5201 H       
  55 H55           -1.5159     2.9691    -1.3667 H       
  56 H56           -0.9213     4.2922    -5.3972 H       
  57 H57            1.2745     3.2510    -5.4566 H       
  58 H58           -0.3707     4.1751     0.3842 H       
  59 H59           -2.6034     5.1918     0.5359 H       
  60 H60           -2.1529     0.3266    -0.1787 H       
  61 H61           -3.2396     3.5235    -1.4529 H       
  62 H62           -4.5786     4.9487     2.2122 H       
  63 H63           -6.8115     5.9606     2.3657 H       
  64 H64           -7.9184     4.0707    -1.3242 H       
  65 H65           -5.6829     3.0645    -1.4775 H       
  66 H66           -2.4411     5.3068    -5.2706 H       
  67 H67           -7.0984     5.8921    -2.3185 H       
  68 H68           -7.8715     7.3035    -4.1442 H       
  69 H69           -6.4504     7.7230    -6.1050 H       
  70 H70           -4.2283     6.7345    -6.2676 H       
  71 H71           -9.5424     4.8833    -1.0925 H       
  72 H72          -11.0209     7.0453     0.2008 H       
  73 H73          -11.0852     6.8408    -2.2567 H       
  74 H74          -11.7431     5.1921    -2.1163 H       
  75 H75          -12.0491     4.1695     0.1829 H       
  76 H76          -11.6016     5.1147     1.6242 H       
  77 H77          -14.0598     5.1374     1.2546 H       
  78 H78          -13.3652     6.7683     1.0959 H       
  79 H79          -13.0740     7.7413    -1.0918 H       
  80 H80          -13.5549     6.8250    -2.5398 H       
  81 H81          -15.4083     7.2942    -0.2301 H       
  82 H82          -15.7133     6.3741    -1.7229 H       
  83 H83          -15.9462     5.6000    -0.1370 H       
@<TRIPOS>BOND
   1    1    2 am
   2    1   10 1
   3    1   17 1
   4    2    3 1
   5    2   15 2
   6    3    4 2
   7    3   52 1
   8    4    5 1
   9    4   53 1
  10    5    6 ar
  11    5   10 ar
  12    6    7 ar
  13    6   54 1
  14    7    8 ar
  15    8    9 ar
  16    8   14 ar
  17    9   10 ar
  18    9   11 ar
  19   11   12 ar
  20   11   55 1
  21   12   13 ar
  22   12   16 1
  23   13   14 ar
  24   13   56 1
  25   14   57 1
  26   16   24 ar
  27   16   33 ar
  28   17   18 ar
  29   17   22 ar
  30   18   19 ar
  31   18   58 1
  32   19   20 ar
  33   19   59 1
  34   20   21 ar
  35   20   23 1
  36   21   22 ar
  37   21   48 1
  38   22   60 1
  39   23   25 ar
  40   23   29 ar
  41   24   30 ar
  42   24   61 1
  43   25   26 ar
  44   25   62 1
  45   26   27 ar
  46   26   63 1
  47   27   28 ar
  48   27   38 1
  49   28   29 ar
  50   28   64 1
  51   29   65 1
  52   30   31 ar
  53   31   32 ar
  54   31   34 ar
  55   32   33 ar
  56   32   37 ar
  57   33   66 1
  58   34   35 ar
  59   34   67 1
  60   35   36 ar
  61   35   68 1
  62   36   37 ar
  63   36   69 1
  64   37   70 1
  65   38   39 am
  66   38   40 2
  67   39   41 1
  68   39   71 1
  69   41   42 1
  70   41   43 1
  71   41   72 1
  72   42   46 1
  73   42   73 1
  74   42   74 1
  75   43   44 1
  76   43   75 1
  77   43   76 1
  78   44   45 1
  79   44   77 1
  80   44   78 1
  81   45   46 1
  82   45   47 1
  83   46   79 1
  84   46   80 1
  85   47   81 1
  86   47   82 1
  87   47   83 1
  88   48   49 1
  89   48   50 1
  90   48   51 1

#	End of record

