#	Name: ASD01916626
#	Creating user name:	WinNT
#	Creation time:	15. 06. 2019 20:07

#	Modifying user name:	WinNT
#	Modification time:	15. 06. 2019 20:07

#	Program:	/corina/corina34_cracker 3.40 0067  02.08.2006

@<TRIPOS>MOLECULE
ASD01916626
  33   35    0    0    0
SMALL
NO_CHARGES


@<TRIPOS>ATOM
   1 C1            -0.0162     1.3410     0.0094 C.2     
   2 N2             0.0021    -0.0041     0.0020 N.am    
   3 C3             1.2637    -0.4708    -0.0125 C.2     
   4 C4             2.1916     0.6799    -0.0152 C.ar    
   5 C5             3.5709     0.8108    -0.0273 C.ar    
   6 C6             4.1413     2.0742    -0.0256 C.ar    
   7 C7             3.3438     3.2031    -0.0119 C.ar    
   8 C8             1.9626     3.0875     0.0003 C.ar    
   9 C9             1.3783     1.8310    -0.0013 C.ar    
  10 O10           -1.0118     2.0364     0.0181 O.2     
  11 O11            1.5863    -1.6416    -0.0213 O.2     
  12 C12           -1.1944    -0.8494     0.0093 C.3     
  13 C13           -1.6253    -1.1359    -1.4305 C.3     
  14 C14           -2.8275    -1.9852    -1.4231 C.1     
  15 C15           -3.7863    -2.6626    -1.4173 C.1     
  16 C16           -4.9559    -3.4889    -1.4101 C.ar    
  17 C17           -5.5334    -3.8819    -2.6181 C.ar    
  18 C18           -6.6631    -4.6802    -2.5944 C.ar    
  19 C19           -7.1802    -5.0608    -1.3637 C.ar    
  20 C20           -6.5576    -4.6352    -0.2048 C.ar    
  21 N21           -5.4795    -3.8797    -0.2539 N.ar    
  22 H22            4.1990    -0.0677    -0.0376 H       
  23 H23            5.2164     2.1772    -0.0346 H       
  24 H24            3.8001     4.1820    -0.0103 H       
  25 H25            1.3444     3.9730     0.0113 H       
  26 H26           -0.9726    -1.7886     0.5160 H       
  27 H27           -1.9995    -0.3349     0.5340 H       
  28 H28           -1.8471    -0.1966    -1.9371 H       
  29 H29           -0.8202    -1.6504    -1.9551 H       
  30 H30           -5.1048    -3.5671    -3.5581 H       
  31 H31           -7.1324    -4.9999    -3.5130 H       
  32 H32           -8.0612    -5.6833    -1.3118 H       
  33 H33           -6.9583    -4.9297     0.7539 H       
@<TRIPOS>BOND
   1    1    2 am
   2    1    9 1
   3    1   10 2
   4    2    3 am
   5    2   12 1
   6    3    4 1
   7    3   11 2
   8    4    5 ar
   9    4    9 ar
  10    5    6 ar
  11    5   22 1
  12    6    7 ar
  13    6   23 1
  14    7    8 ar
  15    7   24 1
  16    8    9 ar
  17    8   25 1
  18   12   13 1
  19   12   26 1
  20   12   27 1
  21   13   14 1
  22   13   28 1
  23   13   29 1
  24   14   15 3
  25   15   16 1
  26   16   17 ar
  27   16   21 ar
  28   17   18 ar
  29   17   30 1
  30   18   19 ar
  31   18   31 1
  32   19   20 ar
  33   19   32 1
  34   20   21 ar
  35   20   33 1

#	End of record

