#	Name: ASD09740452
#	Creating user name:	WinNT
#	Creation time:	15. 06. 2019 21:23

#	Modifying user name:	WinNT
#	Modification time:	15. 06. 2019 21:23

#	Program:	/corina/corina34_cracker 3.40 0067  02.08.2006

@<TRIPOS>MOLECULE
ASD09740452
  65   68    0    0    0
SMALL
NO_CHARGES


@<TRIPOS>ATOM
   1 N1            -0.0879     1.3323    -0.0173 N.2     
   2 C2            -0.1187     0.0236    -0.0593 C.2     
   3 C3             1.0835     1.8983     0.0656 C.2     
   4 S4             2.3290     0.6531     0.0969 S.3     
   5 C5             1.0840    -0.5899    -0.0109 C.2     
   6 C6             1.3279     3.3544     0.1232 C.ar    
   7 C7             0.2557     4.2422     0.0903 C.ar    
   8 C8             2.6357     3.8408     0.2166 C.ar    
   9 C9             2.8694     5.1976     0.2711 C.ar    
  10 C10            1.8086     6.0918     0.2338 C.ar    
  11 C11            0.4923     5.6152     0.1450 C.ar    
  12 O12            2.0445     7.4266     0.2882 O.3     
  13 C13            3.3957     7.8384     0.5043 C.3     
  14 C14            4.1357     7.8824    -0.8341 C.3     
  15 C15            3.4093     9.2297     1.1406 C.3     
  16 C16           -0.6042     6.5355     0.1063 C.1     
  17 N17           -1.4740     7.2655     0.0756 N.1     
  18 C18            1.3154    -2.0493    -0.0421 C.ar    
  19 C19            2.2440    -2.5919    -0.9358 C.ar    
  20 C20            2.4556    -3.9547    -0.9596 C.ar    
  21 C21            1.7477    -4.7800    -0.0990 C.ar    
  22 C22            0.8280    -4.2486     0.7854 C.ar    
  23 C23            0.6121    -2.8865     0.8237 C.ar    
  24 C24            3.1294    -1.9167    -1.9609 C.3     
  25 C25            4.2143    -2.9590    -2.3060 C.3     
  26 C26            3.4988    -4.2927    -2.0034 C.3     
  27 N27            2.8572    -4.8115    -3.2139 N.am    
  28 S28            3.3803    -6.2325    -3.8843 S.o2    
  29 O29            2.5618    -6.4000    -5.0337 O.2     
  30 O30            4.7865    -6.0667    -4.0042 O.2     
  31 C31            2.9918    -7.4913    -2.6373 C.3     
  32 C32            3.5421    -8.8451    -3.0905 C.3     
  33 N33            3.2275    -9.8645    -2.0806 N.3     
  34 C34            1.7783   -10.0882    -1.9921 C.3     
  35 C35            3.9378   -11.1195    -2.3605 C.3     
  36 H36           -1.0443    -0.5286    -0.1276 H       
  37 H37           -0.7554     3.8687     0.0224 H       
  38 H38            3.4656     3.1503     0.2465 H       
  39 H39            3.8818     5.5666     0.3436 H       
  40 H40            3.8895     7.1299     1.1694 H       
  41 H41            3.6419     8.5909    -1.4992 H       
  42 H42            5.1663     8.1965    -0.6693 H       
  43 H43            4.1260     6.8911    -1.2874 H       
  44 H44            2.8821     9.1984     2.0941 H       
  45 H45            4.4400     9.5438     1.3054 H       
  46 H46            2.9155     9.9382     0.4755 H       
  47 H47            1.9161    -5.8466    -0.1203 H       
  48 H48            0.2815    -4.9002     1.4512 H       
  49 H49           -0.1065    -2.4709     1.5147 H       
  50 H50            2.5525    -1.6625    -2.8501 H       
  51 H51            3.5854    -1.0223    -1.5364 H       
  52 H52            4.4901    -2.8973    -3.3587 H       
  53 H53            5.0886    -2.8345    -1.6671 H       
  54 H54            4.2072    -5.0208    -1.6082 H       
  55 H55            2.1259    -4.3226    -3.6228 H       
  56 H56            3.4474    -7.2138    -1.6867 H       
  57 H57            1.9109    -7.5608    -2.5156 H       
  58 H58            3.0866    -9.1226    -4.0411 H       
  59 H59            4.6230    -8.7756    -3.2122 H       
  60 H60            1.4031   -10.4258    -2.9582 H       
  61 H61            1.5733   -10.8473    -1.2372 H       
  62 H62            1.2833    -9.1574    -1.7152 H       
  63 H63            5.0126   -10.9385    -2.3514 H       
  64 H64            3.6870   -11.8568    -1.5978 H       
  65 H65            3.6408   -11.4945    -3.3399 H       
@<TRIPOS>BOND
   1    1    2 1
   2    1    3 2
   3    2    5 2
   4    2   36 1
   5    3    4 1
   6    3    6 1
   7    4    5 1
   8    5   18 1
   9    6    7 ar
  10    6    8 ar
  11    7   11 ar
  12    7   37 1
  13    8    9 ar
  14    8   38 1
  15    9   10 ar
  16    9   39 1
  17   10   11 ar
  18   10   12 1
  19   11   16 1
  20   12   13 1
  21   13   14 1
  22   13   15 1
  23   13   40 1
  24   14   41 1
  25   14   42 1
  26   14   43 1
  27   15   44 1
  28   15   45 1
  29   15   46 1
  30   16   17 3
  31   18   19 ar
  32   18   23 ar
  33   19   20 ar
  34   19   24 1
  35   20   21 ar
  36   20   26 1
  37   21   22 ar
  38   21   47 1
  39   22   23 ar
  40   22   48 1
  41   23   49 1
  42   24   25 1
  43   24   50 1
  44   24   51 1
  45   25   26 1
  46   25   52 1
  47   25   53 1
  48   26   27 1
  49   26   54 1
  50   27   28 am
  51   27   55 1
  52   28   29 2
  53   28   30 2
  54   28   31 1
  55   31   32 1
  56   31   56 1
  57   31   57 1
  58   32   33 1
  59   32   58 1
  60   32   59 1
  61   33   34 1
  62   33   35 1
  63   34   60 1
  64   34   61 1
  65   34   62 1
  66   35   63 1
  67   35   64 1
  68   35   65 1

#	End of record

