#	Name: ASD04590626
#	Creating user name:	WinNT
#	Creation time:	15. 06. 2019 20:51

#	Modifying user name:	WinNT
#	Modification time:	15. 06. 2019 20:51

#	Program:	/corina/corina34_cracker 3.40 0067  02.08.2006

@<TRIPOS>MOLECULE
ASD04590626
  52   56    0    0    0
SMALL
NO_CHARGES


@<TRIPOS>ATOM
   1 N1            -0.0171     1.3230    -0.0125 N.ar    
   2 C2             0.0017    -0.0035    -0.0054 C.ar    
   3 N3             1.1296    -0.6949    -0.0118 N.ar    
   4 C4             2.3048    -0.0730    -0.0264 C.ar    
   5 C5             2.3188     1.3364    -0.0348 C.ar    
   6 C6             1.1071     2.0201    -0.0270 C.ar    
   7 N7             3.6029    -0.5197    -0.0363 N.pl3   
   8 C8             4.4821     0.5492    -0.0511 C.ar    
   9 C9             3.7312     1.7382    -0.0507 C.ar    
  10 C10            5.8679     0.6414    -0.0646 C.ar    
  11 N11            6.4612     1.8175    -0.0768 N.ar    
  12 C12            5.7851     2.9528    -0.0769 C.ar    
  13 C13            4.4064     2.9581    -0.0644 C.ar    
  14 N14           -1.2027    -0.6891     0.0098 N.pl3   
  15 C15           -2.3957     0.0076     0.1296 C.ar    
  16 C16            4.0014    -1.9295    -0.0312 C.3     
  17 C17            3.4005    -2.6440     1.1968 C.3     
  18 C18            3.4375    -2.6412    -1.2735 C.3     
  19 C19            2.5136    -3.7634    -0.7569 C.3     
  20 C20            2.1009    -3.2936     0.6601 C.3     
  21 N21           -2.3699     1.3180     0.3306 N.ar    
  22 C22           -3.4769     2.0204     0.4504 C.ar    
  23 C23           -4.7239     1.3977     0.3681 C.ar    
  24 C24           -4.7804     0.0111     0.1558 C.ar    
  25 C25           -3.6047    -0.6786     0.0314 C.ar    
  26 C26           -5.9632     2.1847     0.5028 C.2     
  27 O27           -7.0438     1.6338     0.4298 O.2     
  28 O28           -5.8977     3.5151     0.7069 O.3     
  29 C29           -6.8837     5.7142     1.0562 C.3     
  30 C30           -7.1578     4.2260     0.8301 C.3     
  31 H31            1.0848     3.0998    -0.0334 H       
  32 H32            6.4643    -0.2590    -0.0647 H       
  33 H33            6.3205     3.8907    -0.0868 H       
  34 H34            3.8598     3.8896    -0.0645 H       
  35 H35           -1.2111    -1.6563    -0.0633 H       
  36 H36            5.0884    -2.0098    -0.0161 H       
  37 H37            4.0846    -3.4081     1.5661 H       
  38 H38            3.1710    -1.9242     1.9825 H       
  39 H39            2.8673    -1.9377    -1.8801 H       
  40 H40            4.2507    -3.0677    -1.8608 H       
  41 H41            1.6367    -3.8605    -1.3971 H       
  42 H42            3.0543    -4.7083    -0.7032 H       
  43 H43            1.8092    -4.1423     1.2788 H       
  44 H44            1.2967    -2.5599     0.6049 H       
  45 H45           -3.4201     3.0864     0.6139 H       
  46 H46           -5.7299    -0.4990     0.0880 H       
  47 H47           -3.6138    -1.7459    -0.1330 H       
  48 H48           -6.3036     5.8420     1.9701 H       
  49 H49           -6.3228     6.1129     0.2109 H       
  50 H50           -7.8297     6.2478     1.1486 H       
  51 H51           -7.7379     4.0981    -0.0838 H       
  52 H52           -7.7187     3.8273     1.6753 H       
@<TRIPOS>BOND
   1    1    2 ar
   2    1    6 ar
   3    2    3 ar
   4    2   14 1
   5    3    4 ar
   6    4    5 ar
   7    4    7 1
   8    5    6 ar
   9    5    9 1
  10    6   31 1
  11    7    8 1
  12    7   16 1
  13    8    9 ar
  14    8   10 ar
  15    9   13 ar
  16   10   11 ar
  17   10   32 1
  18   11   12 ar
  19   12   13 ar
  20   12   33 1
  21   13   34 1
  22   14   15 1
  23   14   35 1
  24   15   21 ar
  25   15   25 ar
  26   16   18 1
  27   16   17 1
  28   16   36 1
  29   17   20 1
  30   17   37 1
  31   17   38 1
  32   18   19 1
  33   18   39 1
  34   18   40 1
  35   19   20 1
  36   19   41 1
  37   19   42 1
  38   20   43 1
  39   20   44 1
  40   21   22 ar
  41   22   23 ar
  42   22   45 1
  43   23   24 ar
  44   23   26 1
  45   24   25 ar
  46   24   46 1
  47   25   47 1
  48   26   27 2
  49   26   28 1
  50   28   30 1
  51   29   30 1
  52   29   48 1
  53   29   49 1
  54   29   50 1
  55   30   51 1
  56   30   52 1

#	End of record

