#	Name: ASD01883071
#	Creating user name:	WinNT
#	Creation time:	15. 06. 2019 19:45

#	Modifying user name:	WinNT
#	Modification time:	15. 06. 2019 19:45

#	Program:	/corina/corina34_cracker 3.40 0067  02.08.2006

@<TRIPOS>MOLECULE
ASD01883071
  46   48    0    0    0
SMALL
NO_CHARGES


@<TRIPOS>ATOM
   1 N1            -0.0197     1.3480     0.0066 N.am    
   2 C2            -0.0002     0.0023     0.0094 C.2     
   3 C3            -1.2177    -0.7221     0.0185 C.2     
   4 C4            -2.4284    -0.0069     0.0244 C.2     
   5 C5            -2.3822     1.4012     0.0210 C.2     
   6 C6            -1.1893     2.0379     0.0175 C.2     
   7 O7             1.0640    -0.5927     0.0038 O.2     
   8 C8            -1.2155    -2.1541     0.0211 C.1     
   9 N9            -1.2137    -3.2901     0.0232 N.1     
  10 C10            1.2471     2.0838    -0.0023 C.3     
  11 C11            1.6732     2.3331    -1.4261 C.ar    
  12 C12            1.2671     3.4828    -2.0775 C.ar    
  13 C13            1.6577     3.7127    -3.3830 C.ar    
  14 C14            2.4561     2.7908    -4.0387 C.ar    
  15 C15            2.8622     1.6397    -3.3853 C.ar    
  16 C16            2.4748     1.4145    -2.0780 C.ar    
  17 C17           -3.7236    -0.7182     0.0334 C.ar    
  18 F18            2.8381     3.0143    -5.3151 F       
  19 C19           -4.5766    -0.6055     1.1336 C.ar    
  20 C20           -5.7835    -1.2701     1.1388 C.ar    
  21 C21           -6.1530    -2.0518     0.0517 C.ar    
  22 C22           -5.3068    -2.1670    -1.0462 C.ar    
  23 C23           -4.1006    -1.5006    -1.0611 C.ar    
  24 O24           -7.3431    -2.7056     0.0609 O.3     
  25 C25           -8.1088    -2.6421     1.2658 C.3     
  26 C26           -8.9468    -1.3620     1.2708 C.3     
  27 C27           -9.0343    -3.8578     1.3466 C.3     
  28 Cl28          -5.7738    -3.1454    -2.4021 Cl      
  29 H29           -3.2992     1.9718     0.0251 H       
  30 H30           -1.1663     3.1176     0.0153 H       
  31 H31            1.1172     3.0370     0.5103 H       
  32 H32            2.0112     1.4979     0.5084 H       
  33 H33            0.6440     4.2015    -1.5659 H       
  34 H34            1.3400     4.6108    -3.8918 H       
  35 H35            3.4850     0.9199    -3.8958 H       
  36 H36            2.7914     0.5166    -1.5682 H       
  37 H37           -4.2902     0.0017     1.9796 H       
  38 H38           -6.4432    -1.1835     1.9896 H       
  39 H39           -3.4438    -1.5900    -1.9138 H       
  40 H40           -7.4365    -2.6396     2.1238 H       
  41 H41           -8.2875    -0.4959     1.2132 H       
  42 H42           -9.6190    -1.3645     0.4128 H       
  43 H43           -9.5308    -1.3136     2.1898 H       
  44 H44           -8.4373    -4.7698     1.3431 H       
  45 H45           -9.6183    -3.8094     2.2656 H       
  46 H46           -9.7065    -3.8603     0.4886 H       
@<TRIPOS>BOND
   1    1    2 am
   2    1   10 1
   3    1    6 1
   4    2    3 1
   5    2    7 2
   6    3    4 2
   7    3    8 1
   8    4    5 1
   9    4   17 1
  10    5    6 2
  11    5   29 1
  12    6   30 1
  13    8    9 3
  14   10   11 1
  15   10   31 1
  16   10   32 1
  17   11   12 ar
  18   11   16 ar
  19   12   13 ar
  20   12   33 1
  21   13   14 ar
  22   13   34 1
  23   14   15 ar
  24   14   18 1
  25   15   16 ar
  26   15   35 1
  27   16   36 1
  28   17   19 ar
  29   17   23 ar
  30   19   20 ar
  31   19   37 1
  32   20   21 ar
  33   20   38 1
  34   21   22 ar
  35   21   24 1
  36   22   23 ar
  37   22   28 1
  38   23   39 1
  39   24   25 1
  40   25   26 1
  41   25   27 1
  42   25   40 1
  43   26   41 1
  44   26   42 1
  45   26   43 1
  46   27   44 1
  47   27   45 1
  48   27   46 1

#	End of record

