#	Name: ASD04590173
#	Creating user name:	WinNT
#	Creation time:	15. 06. 2019 20:50

#	Modifying user name:	WinNT
#	Modification time:	15. 06. 2019 20:50

#	Program:	/corina/corina34_cracker 3.40 0067  02.08.2006

@<TRIPOS>MOLECULE
ASD04590173
  56   59    0    0    0
SMALL
NO_CHARGES


@<TRIPOS>ATOM
   1 N1            -0.0524     1.2703    -0.1758 N.pl3   
   2 N2             0.0073    -0.0026    -0.0147 N.2     
   3 C3             1.0955    -0.4845    -0.5838 C.2     
   4 C4             1.7846     0.6136    -1.1607 C.2     
   5 C5             1.0243     1.7053    -0.8796 C.2     
   6 C6             1.5163    -1.8977    -0.6145 C.2     
   7 N7             0.7572    -2.8400    -0.0209 N.am    
   8 O8             2.5482    -2.2127    -1.1755 O.2     
   9 N9             2.9943     0.5801    -1.8702 N.am    
  10 C10            3.5214     1.7207    -2.3579 C.2     
  11 C11            1.1119    -4.1910    -0.1220 C.ar    
  12 O12            2.9483     2.7789    -2.1828 O.2     
  13 C13            4.7935     1.6854    -3.1041 C.ar    
  14 C14            6.0100     1.8281    -2.4279 C.ar    
  15 C15            7.1972     1.7934    -3.1348 C.ar    
  16 C16            7.1849     1.6182    -4.5067 C.ar    
  17 C17            5.9869     1.4764    -5.1831 C.ar    
  18 C18            4.7906     1.5033    -4.4913 C.ar    
  19 F19            6.0241     1.9998    -1.0879 F       
  20 F20            3.6215     1.3645    -5.1539 F       
  21 C21            2.4349    -4.5482    -0.3388 C.ar    
  22 C22            0.1382    -5.1795     0.0007 C.ar    
  23 C23            0.4936    -6.5146    -0.0994 C.ar    
  24 C24            1.8126    -6.8650    -0.3208 C.ar    
  25 C25            2.7827    -5.8839    -0.4378 C.ar    
  26 F26            4.0702    -6.2311    -0.6546 F       
  27 O27           -1.1593    -4.8344     0.2190 O.3     
  28 C28           -2.1036    -5.9007     0.3344 C.3     
  29 C29           -3.4992    -5.3220     0.5760 C.3     
  30 N30           -3.9219    -4.5545    -0.6031 N.3     
  31 C31           -5.3454    -4.1822    -0.5087 C.3     
  32 C32           -5.4247    -2.6454    -0.6242 C.3     
  33 C33           -4.1007    -2.2804    -1.3458 C.3     
  34 C34           -3.1210    -3.3202    -0.7468 C.3     
  35 H35           -0.7660     1.8385     0.1541 H       
  36 H36            1.2366     2.7256    -1.1629 H       
  37 H37           -0.0348    -2.5824     0.4763 H       
  38 H38            3.4515    -0.2639    -2.0099 H       
  39 H39            8.1371     1.9037    -2.6145 H       
  40 H40            8.1162     1.5924    -5.0530 H       
  41 H41            5.9863     1.3404    -6.2545 H       
  42 H42            3.1927    -3.7843    -0.4307 H       
  43 H43           -0.2601    -7.2823    -0.0042 H       
  44 H44            2.0876    -7.9066    -0.3982 H       
  45 H45           -2.1067    -6.4846    -0.5860 H       
  46 H46           -1.8266    -6.5424     1.1708 H       
  47 H47           -4.2039    -6.1346     0.7524 H       
  48 H48           -3.4751    -4.6666     1.4466 H       
  49 H49           -5.9043    -4.6445    -1.3223 H       
  50 H50           -5.7498    -4.5033     0.4512 H       
  51 H51           -6.2850    -2.3478    -1.2237 H       
  52 H52           -5.4645    -2.1862     0.3635 H       
  53 H53           -4.1953    -2.4091    -2.4240 H       
  54 H54           -3.7897    -1.2648    -1.1011 H       
  55 H55           -2.7611    -2.9858     0.2262 H       
  56 H56           -2.2841    -3.4876    -1.4248 H       
@<TRIPOS>BOND
   1    1    2 1
   2    1    5 1
   3    1   35 1
   4    2    3 2
   5    3    4 1
   6    3    6 1
   7    4    5 2
   8    4    9 1
   9    5   36 1
  10    6    7 am
  11    6    8 2
  12    7   11 1
  13    7   37 1
  14    9   10 am
  15    9   38 1
  16   10   12 2
  17   10   13 1
  18   11   21 ar
  19   11   22 ar
  20   13   14 ar
  21   13   18 ar
  22   14   15 ar
  23   14   19 1
  24   15   16 ar
  25   15   39 1
  26   16   17 ar
  27   16   40 1
  28   17   18 ar
  29   17   41 1
  30   18   20 1
  31   21   25 ar
  32   21   42 1
  33   22   23 ar
  34   22   27 1
  35   23   24 ar
  36   23   43 1
  37   24   25 ar
  38   24   44 1
  39   25   26 1
  40   27   28 1
  41   28   29 1
  42   28   45 1
  43   28   46 1
  44   29   30 1
  45   29   47 1
  46   29   48 1
  47   30   31 1
  48   30   34 1
  49   31   32 1
  50   31   49 1
  51   31   50 1
  52   32   33 1
  53   32   51 1
  54   32   52 1
  55   33   34 1
  56   33   53 1
  57   33   54 1
  58   34   55 1
  59   34   56 1

#	End of record

