#	Name: ASD00192029
#	Creating user name:	WinNT
#	Creation time:	15. 06. 2019 18:33

#	Modifying user name:	WinNT
#	Modification time:	15. 06. 2019 18:33

#	Program:	/corina/corina34_cracker 3.40 0067  02.08.2006

@<TRIPOS>MOLECULE
ASD00192029
  20   21    0    0    0
SMALL
NO_CHARGES


@<TRIPOS>ATOM
   1 N1            -0.0157     1.3079     0.0092 N.ar    
   2 C2             0.0021    -0.0041     0.0020 C.ar    
   3 C3             1.1924    -0.7210    -0.0127 C.ar    
   4 C4             2.3994    -0.0459    -0.0206 C.ar    
   5 C5             2.3677     1.3675    -0.0131 C.ar    
   6 C6             3.5482     2.1238    -0.0208 C.ar    
   7 C7             3.4765     3.4844    -0.0137 C.ar    
   8 C8             2.2448     4.1339     0.0014 C.ar    
   9 C9             1.0797     3.4296     0.0096 C.ar    
  10 C10            1.1138     2.0247     0.0023 C.ar    
  11 O11            3.5765    -0.7186    -0.0345 O.3     
  12 N12            1.1686    -2.2010    -0.0195 N.pl3   
  13 O13            0.1042    -2.7930    -0.0122 O.2     
  14 O14            2.2134    -2.8269    -0.0324 O.2     
  15 H15           -0.9345    -0.5418     0.0081 H       
  16 H16            4.5090     1.6306    -0.0318 H       
  17 H17            4.3862     4.0664    -0.0196 H       
  18 H18            2.2133     5.2134     0.0071 H       
  19 H19            0.1327     3.9487     0.0221 H       
  20 H20            3.9099    -0.9095    -0.9219 H       
@<TRIPOS>BOND
   1    1    2 ar
   2    1   10 ar
   3    2    3 ar
   4    2   15 1
   5    3    4 ar
   6    3   12 1
   7    4    5 ar
   8    4   11 1
   9    5    6 ar
  10    5   10 ar
  11    6    7 ar
  12    6   16 1
  13    7    8 ar
  14    7   17 1
  15    8    9 ar
  16    8   18 1
  17    9   10 ar
  18    9   19 1
  19   11   20 1
  20   12   13 2
  21   12   14 2

#	End of record

