#	Name: ASD02038888
#	Creating user name:	WinNT
#	Creation time:	15. 06. 2019 20:17

#	Modifying user name:	WinNT
#	Modification time:	15. 06. 2019 20:17

#	Program:	/corina/corina34_cracker 3.40 0067  02.08.2006

@<TRIPOS>MOLECULE
ASD02038888
  80   82    0    0    0
SMALL
NO_CHARGES


@<TRIPOS>ATOM
   1 C1            -0.8406     0.7313    -2.4445 C.2     
   2 C2            -0.6367    -0.7225    -2.1040 C.3     
   3 C3            -1.5788    -1.1164    -0.9646 C.3     
   4 O4             0.0789     1.5092    -2.3481 O.2     
   5 O5            -2.0424     1.1610    -2.8604 O.3     
   6 O6            -1.3785    -0.2378     0.1445 O.3     
   7 C7             1.3138    -2.1539    -1.8147 C.2     
   8 O8             0.6713    -3.0731    -2.2765 O.2     
   9 N9             0.7511    -0.9360    -1.6860 N.am    
  10 N10            3.1254    -3.7728    -1.6223 N.am    
  11 C11            2.7414    -2.3736    -1.3848 C.3     
  12 C12            3.6852    -1.4901    -2.2275 C.3     
  13 C13            4.1808    -2.4636    -3.3295 C.3     
  14 C14            4.2730    -3.7976    -2.5474 C.3     
  15 C15            2.5306    -4.8536    -1.0795 C.2     
  16 O16            1.5928    -4.7138    -0.3232 O.2     
  17 N17            2.2270    -7.2423    -0.7037 N.am    
  18 C18            3.0306    -6.2357    -1.4125 C.3     
  19 C19            2.8695    -6.5021    -2.9240 C.3     
  20 C20            1.5354    -7.2909    -2.9975 C.3     
  21 C21            1.5991    -8.1316    -1.6979 C.3     
  22 C22            2.0916    -7.3397     0.6337 C.2     
  23 C23            1.1453    -8.3536     1.2234 C.3     
  24 C24            1.9147    -9.6312     1.5649 C.3     
  25 C25            2.4117   -10.2874     0.2752 C.3     
  26 O26            2.7312    -6.6114     1.3626 O.2     
  27 N27            0.5410    -7.8072     2.4410 N.am    
  28 C28           -0.6562    -8.2616     2.8615 C.2     
  29 O29           -1.2342    -9.1245     2.2308 O.2     
  30 O30           -1.2116    -7.7595     3.9805 O.3     
  31 C31           -2.5023    -8.2959     4.3737 C.3     
  32 C32           -2.9631    -7.6194     5.6390 C.ar    
  33 C33           -3.7227    -6.4665     5.5691 C.ar    
  34 C34           -4.1453    -5.8459     6.7298 C.ar    
  35 C35           -3.8088    -6.3784     7.9603 C.ar    
  36 C36           -3.0500    -7.5318     8.0301 C.ar    
  37 C37           -2.6310    -8.1548     6.8694 C.ar    
  38 O38            1.0385   -10.5502     2.2691 O.3     
  39 C39            1.0053   -10.4557     3.6077 C.2     
  40 O40            1.6858    -9.6322     4.1722 O.2     
  41 C41            0.1192   -11.3765     4.4064 C.3     
  42 C42           -2.1661     2.5740    -3.1708 C.3     
  43 H43           -0.8505    -1.3344    -2.9803 H       
  44 H44           -2.6116    -1.0422    -1.3050 H       
  45 H45           -1.3699    -2.1415    -0.6584 H       
  46 H46           -1.9441    -0.4293     0.9051 H       
  47 H47            1.2650    -0.2009    -1.3167 H       
  48 H48            2.8536    -2.1327    -0.3277 H       
  49 H49            3.1408    -0.6546    -2.6675 H       
  50 H50            4.5200    -1.1331    -1.6245 H       
  51 H51            3.4570    -2.5358    -4.1413 H       
  52 H52            5.1586    -2.1627    -3.7056 H       
  53 H53            5.2085    -3.8467    -1.9902 H       
  54 H54            4.1920    -4.6437    -3.2298 H       
  55 H55            4.0787    -6.3312    -1.1289 H       
  56 H56            2.7941    -5.5647    -3.4749 H       
  57 H57            3.6957    -7.1059    -3.2993 H       
  58 H58            0.6805    -6.6149    -2.9840 H       
  59 H59            1.5095    -7.9335    -3.8776 H       
  60 H60            2.2104    -9.0210    -1.8510 H       
  61 H61            0.5955    -8.4106    -1.3770 H       
  62 H62            0.3623    -8.5832     0.5007 H       
  63 H63            2.7666    -9.3839     2.1984 H       
  64 H64            3.1410    -9.6360    -0.2063 H       
  65 H65            2.8784   -11.2439     0.5107 H       
  66 H66            1.5696   -10.4499    -0.3976 H       
  67 H67            1.0024    -7.1184     2.9445 H       
  68 H68           -3.2277    -8.1156     3.5803 H       
  69 H69           -2.4126    -9.3683     4.5470 H       
  70 H70           -3.9856    -6.0505     4.6078 H       
  71 H71           -4.7381    -4.9448     6.6752 H       
  72 H72           -4.1384    -5.8931     8.8671 H       
  73 H73           -2.7868    -7.9476     8.9915 H       
  74 H74           -2.0413    -9.0579     6.9239 H       
  75 H75           -0.4139   -12.0447     3.7301 H       
  76 H76            0.7300   -11.9646     5.0915 H       
  77 H77           -0.5992   -10.7864     4.9753 H       
  78 H78           -1.4702     2.8329    -3.9689 H       
  79 H79           -3.1850     2.7872    -3.4938 H       
  80 H80           -1.9357     3.1626    -2.2828 H       
@<TRIPOS>BOND
   1    1    2 1
   2    1    4 2
   3    1    5 1
   4    2    3 1
   5    2    9 1
   6    2   43 1
   7    3    6 1
   8    3   44 1
   9    3   45 1
  10    5   42 1
  11    6   46 1
  12    7    8 2
  13    7    9 am
  14    7   11 1
  15    9   47 1
  16   10   11 1
  17   10   14 1
  18   10   15 am
  19   11   12 1
  20   11   48 1
  21   12   13 1
  22   12   49 1
  23   12   50 1
  24   13   14 1
  25   13   51 1
  26   13   52 1
  27   14   53 1
  28   14   54 1
  29   15   16 2
  30   15   18 1
  31   17   18 1
  32   17   21 1
  33   17   22 am
  34   18   19 1
  35   18   55 1
  36   19   20 1
  37   19   56 1
  38   19   57 1
  39   20   21 1
  40   20   58 1
  41   20   59 1
  42   21   60 1
  43   21   61 1
  44   22   26 2
  45   22   23 1
  46   23   24 1
  47   23   27 1
  48   23   62 1
  49   24   25 1
  50   24   38 1
  51   24   63 1
  52   25   64 1
  53   25   65 1
  54   25   66 1
  55   27   28 am
  56   27   67 1
  57   28   29 2
  58   28   30 1
  59   30   31 1
  60   31   32 1
  61   31   68 1
  62   31   69 1
  63   32   33 ar
  64   32   37 ar
  65   33   34 ar
  66   33   70 1
  67   34   35 ar
  68   34   71 1
  69   35   36 ar
  70   35   72 1
  71   36   37 ar
  72   36   73 1
  73   37   74 1
  74   38   39 1
  75   39   40 2
  76   39   41 1
  77   41   75 1
  78   41   76 1
  79   41   77 1
  80   42   78 1
  81   42   79 1
  82   42   80 1

#	End of record

