#	Name: ASD01880949
#	Creating user name:	WinNT
#	Creation time:	15. 06. 2019 19:41

#	Modifying user name:	WinNT
#	Modification time:	15. 06. 2019 19:41

#	Program:	/corina/corina34_cracker 3.40 0067  02.08.2006

@<TRIPOS>MOLECULE
ASD01880949
  50   52    0    0    0
SMALL
NO_CHARGES


@<TRIPOS>ATOM
   1 N1            -0.0158     1.3149     0.0093 N.ar    
   2 C2             0.0021    -0.0041     0.0020 C.ar    
   3 N3             1.1337    -0.6824    -0.0120 N.ar    
   4 C4             2.2991    -0.0560    -0.0197 C.ar    
   5 C5             2.3200     1.3300    -0.0130 C.ar    
   6 C6             1.1115     2.0080     0.0022 C.ar    
   7 C7             3.6261     2.0818    -0.0209 C.3     
   8 O8             4.7109     1.1517    -0.0353 O.3     
   9 C9             5.9656     1.6687    -0.0440 C.ar    
  10 C10            7.0676     0.8185    -0.0582 C.ar    
  11 C11            8.3364     1.3415    -0.0674 C.ar    
  12 C12            8.5313     2.7270    -0.0626 C.ar    
  13 C13            7.4207     3.5776    -0.0484 C.ar    
  14 C14            6.1485     3.0457    -0.0445 C.ar    
  15 C15            9.7102     0.7188    -0.0835 C.3     
  16 N16           10.6648     1.8331    -0.0873 N.am    
  17 C17            9.9800     2.9895    -0.0752 C.2     
  18 O18           10.4851     4.0956    -0.0751 O.2     
  19 Cl19          -1.5025    -0.8700     0.0117 Cl      
  20 Cl20           7.6437     5.2992    -0.0417 Cl      
  21 C21           12.6181     1.6691    -1.5498 C.3     
  22 C22           12.1243     1.7061    -0.1022 C.3     
  23 C23            0.9720     7.6084    -2.8533 C.3     
  24 C24            1.0025     6.0787    -2.8613 C.3     
  25 C25            1.0267     5.5615    -1.4216 C.3     
  26 C26            1.0573     4.0319    -1.4296 C.3     
  27 C27            1.0815     3.5147     0.0101 C.3     
  28 H28            3.2218    -0.6171    -0.0309 H       
  29 H29            3.6767     2.7128    -0.9082 H       
  30 H30            3.6927     2.7038     0.8717 H       
  31 H31            6.9243    -0.2520    -0.0616 H       
  32 H32            5.2910     3.7022    -0.0338 H       
  33 H33            9.8540     0.1052     0.8059 H       
  34 H34            9.8369     0.1137    -0.9812 H       
  35 H35           13.7040     1.5746    -1.5610 H       
  36 H36           12.1739     0.8166    -2.0636 H       
  37 H37           12.3283     2.5898    -2.0562 H       
  38 H38           12.5684     2.5587     0.4116 H       
  39 H39           12.4141     0.7854     0.4042 H       
  40 H40            1.8595     7.9869    -2.3462 H       
  41 H41            0.9547     7.9768    -3.8790 H       
  42 H42            0.0800     7.9513    -2.3290 H       
  43 H43            0.1150     5.7003    -3.3685 H       
  44 H44            1.8945     5.7359    -3.3856 H       
  45 H45            1.9142     5.9400    -0.9144 H       
  46 H46            0.1347     5.9044    -0.8973 H       
  47 H47            0.1697     3.6534    -1.9367 H       
  48 H48            1.9493     3.6890    -1.9539 H       
  49 H49            0.1895     3.8576     0.5344 H       
  50 H50            1.9690     3.8932     0.5173 H       
@<TRIPOS>BOND
   1    1    2 ar
   2    1    6 ar
   3    2    3 ar
   4    2   19 1
   5    3    4 ar
   6    4    5 ar
   7    4   28 1
   8    5    6 ar
   9    5    7 1
  10    6   27 1
  11    7    8 1
  12    7   29 1
  13    7   30 1
  14    8    9 1
  15    9   10 ar
  16    9   14 ar
  17   10   11 ar
  18   10   31 1
  19   11   12 ar
  20   11   15 1
  21   12   13 ar
  22   12   17 1
  23   13   14 ar
  24   13   20 1
  25   14   32 1
  26   15   16 1
  27   15   33 1
  28   15   34 1
  29   16   17 am
  30   16   22 1
  31   17   18 2
  32   21   22 1
  33   21   35 1
  34   21   36 1
  35   21   37 1
  36   22   38 1
  37   22   39 1
  38   23   24 1
  39   23   40 1
  40   23   41 1
  41   23   42 1
  42   24   25 1
  43   24   43 1
  44   24   44 1
  45   25   26 1
  46   25   45 1
  47   25   46 1
  48   26   27 1
  49   26   47 1
  50   26   48 1
  51   27   49 1
  52   27   50 1

#	End of record

