#	Name: ASD01580008
#	Creating user name:	WinNT
#	Creation time:	15. 06. 2019 19:22

#	Modifying user name:	WinNT
#	Modification time:	15. 06. 2019 19:22

#	Program:	/corina/corina34_cracker 3.40 0067  02.08.2006

@<TRIPOS>MOLECULE
ASD01580008
  17   17    0    0    0
SMALL
NO_CHARGES


@<TRIPOS>ATOM
   1 N1            -0.0178     1.4648     0.0101 N.3     
   2 C2             0.0021    -0.0041     0.0020 C.3     
   3 C3            -1.4333    -0.5336     0.0129 C.3     
   4 C4            -1.4129    -2.0405     0.0046 C.2     
   5 C5            -2.0185    -2.8451     0.8987 C.2     
   6 N6            -1.7474    -4.1323     0.5205 N.pl3   
   7 C7            -0.9850    -4.0695    -0.5924 C.2     
   8 N8            -0.7931    -2.8154    -0.8979 N.2     
   9 H9             0.9191     1.8392     0.0032 H       
  10 H10           -0.5563     1.8234    -0.7642 H       
  11 H11            0.5123    -0.3556    -0.8948 H       
  12 H12            0.5293    -0.3651     0.8851 H       
  13 H13           -1.9435    -0.1821     0.9097 H       
  14 H14           -1.9605    -0.1726    -0.8702 H       
  15 H15           -2.6051    -2.5344     1.7506 H       
  16 H16           -2.0470    -4.9390     0.9681 H       
  17 H17           -0.6010    -4.9169    -1.1410 H       
@<TRIPOS>BOND
   1    1    2 1
   2    1    9 1
   3    1   10 1
   4    2    3 1
   5    2   11 1
   6    2   12 1
   7    3    4 1
   8    3   13 1
   9    3   14 1
  10    4    5 2
  11    4    8 1
  12    5    6 1
  13    5   15 1
  14    6    7 1
  15    6   16 1
  16    7    8 2
  17    7   17 1

#	End of record

