#	Name: ASD02500156
#	Creating user name:	WinNT
#	Creation time:	15. 06. 2019 20:22

#	Modifying user name:	WinNT
#	Modification time:	15. 06. 2019 20:22

#	Program:	/corina/corina34_cracker 3.40 0067  02.08.2006

@<TRIPOS>MOLECULE
ASD02500156
  62   66    0    0    0
SMALL
NO_CHARGES


@<TRIPOS>ATOM
   1 N1            -1.1043     0.2066     0.9021 N.am    
   2 C2            -0.8235    -0.6282    -0.2744 C.3     
   3 C3             0.1020     0.1500    -1.2179 C.3     
   4 N4             1.2305     0.6783    -0.4386 N.am    
   5 C5             0.9497     1.5130     0.7379 C.3     
   6 C6             0.0242     0.7348     1.6814 C.3     
   7 C7            -2.3739     0.4873     1.2568 C.2     
   8 O8            -2.5966     1.1078     2.2784 O.2     
   9 N9            -3.3965     0.0802     0.4790 N.am    
  10 C10            2.5002     0.4017    -0.7962 C.2     
  11 C11            3.6231     1.0307    -0.0754 C.ar    
  12 C12            4.8164     0.3272     0.1129 C.ar    
  13 C13            5.8621     0.9166     0.7858 C.ar    
  14 C14            5.7326     2.2121     1.2787 C.ar    
  15 C15            4.5454     2.9152     1.0931 C.ar    
  16 C16            3.4983     2.3336     0.4157 C.ar    
  17 O17            2.7201    -0.3662    -1.7130 O.2     
  18 S18            7.2617     4.3458     1.5751 S.o2    
  19 O19            6.0832     5.1396     1.5856 O.2     
  20 O20            8.3976     4.6302     2.3802 O.2     
  21 N21            6.7911     2.8050     1.9582 N.am    
  22 N22            9.7199     2.9896     0.5063 N.ar    
  23 C23           10.8210     2.3472     0.2012 C.ar    
  24 C24           11.3050     2.3010    -1.1046 C.ar    
  25 C25           10.6269     2.9359    -2.1058 C.ar    
  26 C26            9.4446     3.6244    -1.7744 C.ar    
  27 C27            8.6945     4.3006    -2.7496 C.ar    
  28 C28            7.5563     4.9554    -2.3888 C.ar    
  29 C29            7.1253     4.9628    -1.0641 C.ar    
  30 C30            7.8285     4.3185    -0.0930 C.ar    
  31 C31            9.0088     3.6317    -0.4260 C.ar    
  32 C32           -4.7171     0.3260     0.8737 C.ar    
  33 C33           -5.7365    -0.5251     0.4636 C.ar    
  34 C34           -7.0386    -0.2796     0.8555 C.ar    
  35 C35           -7.3274     0.8116     1.6548 C.ar    
  36 C36           -6.3153     1.6600     2.0636 C.ar    
  37 C37           -5.0104     1.4170     1.6801 C.ar    
  38 Cl38          -5.3744    -1.8945    -0.5401 Cl      
  39 H39           -0.3343    -1.5502     0.0396 H       
  40 H40           -1.7561    -0.8624    -0.7878 H       
  41 H41            0.4747    -0.5158    -1.9962 H       
  42 H42           -0.4476     0.9750    -1.6712 H       
  43 H43            1.8823     1.7473     1.2512 H       
  44 H44            0.4605     2.4351     0.4239 H       
  45 H45           -0.3485     1.4007     2.4597 H       
  46 H46            0.5738    -0.0902     2.1346 H       
  47 H47           -3.2176    -0.3830    -0.3542 H       
  48 H48            4.9173    -0.6780    -0.2689 H       
  49 H49            6.7841     0.3735     0.9320 H       
  50 H50            4.4478     3.9198     1.4773 H       
  51 H51            2.5794     2.8814     0.2676 H       
  52 H52            7.2538     2.3160     2.6565 H       
  53 H53           11.3677     1.8405     0.9827 H       
  54 H54           12.2158     1.7640    -1.3247 H       
  55 H55           10.9879     2.9107    -3.1234 H       
  56 H56            9.0184     4.3017    -3.7799 H       
  57 H57            6.9799     5.4753    -3.1397 H       
  58 H58            6.2196     5.4900    -0.8030 H       
  59 H59           -7.8316    -0.9401     0.5372 H       
  60 H60           -8.3459     1.0015     1.9598 H       
  61 H61           -6.5444     2.5114     2.6874 H       
  62 H62           -4.2199     2.0777     2.0040 H       
@<TRIPOS>BOND
   1    1    2 1
   2    1    6 1
   3    1    7 am
   4    2    3 1
   5    2   39 1
   6    2   40 1
   7    3    4 1
   8    3   41 1
   9    3   42 1
  10    4    5 1
  11    4   10 am
  12    5    6 1
  13    5   43 1
  14    5   44 1
  15    6   45 1
  16    6   46 1
  17    7    8 2
  18    7    9 am
  19    9   32 1
  20    9   47 1
  21   10   11 1
  22   10   17 2
  23   11   12 ar
  24   11   16 ar
  25   12   13 ar
  26   12   48 1
  27   13   14 ar
  28   13   49 1
  29   14   15 ar
  30   14   21 1
  31   15   16 ar
  32   15   50 1
  33   16   51 1
  34   18   19 2
  35   18   20 2
  36   18   21 am
  37   18   30 1
  38   21   52 1
  39   22   23 ar
  40   22   31 ar
  41   23   24 ar
  42   23   53 1
  43   24   25 ar
  44   24   54 1
  45   25   26 ar
  46   25   55 1
  47   26   27 ar
  48   26   31 ar
  49   27   28 ar
  50   27   56 1
  51   28   29 ar
  52   28   57 1
  53   29   30 ar
  54   29   58 1
  55   30   31 ar
  56   32   33 ar
  57   32   37 ar
  58   33   34 ar
  59   33   38 1
  60   34   35 ar
  61   34   59 1
  62   35   36 ar
  63   35   60 1
  64   36   37 ar
  65   36   61 1
  66   37   62 1

#	End of record

