#	Name: ASD01917680
#	Creating user name:	WinNT
#	Creation time:	15. 06. 2019 20:09

#	Modifying user name:	WinNT
#	Modification time:	15. 06. 2019 20:09

#	Program:	/corina/corina34_cracker 3.40 0067  02.08.2006

@<TRIPOS>MOLECULE
ASD01917680
  39   42    0    0    0
SMALL
NO_CHARGES


@<TRIPOS>ATOM
   1 C1            -0.0140     1.4936     0.0246 C.3     
   2 C2             0.0204    -0.0167     0.0082 C.2     
   3 C3             2.4651    -0.1848    -0.4926 C.3     
   4 C4             2.3200     1.2814    -0.9140 C.3     
   5 N5             1.3859     1.9574    -0.0009 N.am    
   6 C6            -1.0012    -0.8651     0.2169 C.2     
   7 C7            -0.5001    -2.1780     0.0956 C.2     
   8 N8             0.7872    -2.0984    -0.1759 N.2     
   9 N9             1.1364    -0.7462    -0.2308 N.pl3   
  10 C10            1.7964     2.9700     0.7881 C.2     
  11 O11            2.9744     3.2666     0.8326 O.2     
  12 C12            0.8141     3.7199     1.5996 C.ar    
  13 C13            1.1698     4.2042     2.8594 C.ar    
  14 C14           -0.4708     3.9515     1.1067 C.ar    
  15 C15           -1.3833     4.6524     1.8684 C.ar    
  16 C16           -1.0272     5.1256     3.1184 C.ar    
  17 C17            0.2477     4.9041     3.6117 C.ar    
  18 C18           -1.2839    -3.4283     0.2472 C.ar    
  19 C19           -0.6527    -4.6618     0.0993 C.ar    
  20 C20           -1.3969    -5.8195     0.2441 C.ar    
  21 C21           -2.7498    -5.7058     0.5326 C.ar    
  22 C22           -3.3113    -4.4498     0.6660 C.ar    
  23 N23           -2.5787    -3.3631     0.5281 N.ar    
  24 Cl24           0.6871     5.5072     5.1792 Cl      
  25 H25           -0.5441     1.8630    -0.8532 H       
  26 H26           -0.5055     1.8446     0.9320 H       
  27 H27            2.9468    -0.7474    -1.2922 H       
  28 H28            3.0706    -0.2454     0.4118 H       
  29 H29            3.2926     1.7714    -0.8681 H       
  30 H30            1.9342     1.3311    -1.9322 H       
  31 H31           -2.0222    -0.5907     0.4378 H       
  32 H32            2.1638     4.0316     3.2449 H       
  33 H33           -0.7505     3.5830     0.1308 H       
  34 H34           -2.3777     4.8323     1.4875 H       
  35 H35           -1.7451     5.6740     3.7103 H       
  36 H36            0.4023    -4.7136    -0.1256 H       
  37 H37           -0.9353    -6.7898     0.1347 H       
  38 H38           -3.3581    -6.5903     0.6513 H       
  39 H39           -4.3637    -4.3579     0.8904 H       
@<TRIPOS>BOND
   1    1    2 1
   2    1    5 1
   3    1   25 1
   4    1   26 1
   5    2    6 2
   6    2    9 1
   7    3    4 1
   8    3    9 1
   9    3   27 1
  10    3   28 1
  11    4    5 1
  12    4   29 1
  13    4   30 1
  14    5   10 am
  15    6    7 1
  16    6   31 1
  17    7    8 2
  18    7   18 1
  19    8    9 1
  20   10   11 2
  21   10   12 1
  22   12   14 ar
  23   12   13 ar
  24   13   17 ar
  25   13   32 1
  26   14   15 ar
  27   14   33 1
  28   15   16 ar
  29   15   34 1
  30   16   17 ar
  31   16   35 1
  32   17   24 1
  33   18   19 ar
  34   18   23 ar
  35   19   20 ar
  36   19   36 1
  37   20   21 ar
  38   20   37 1
  39   21   22 ar
  40   21   38 1
  41   22   23 ar
  42   22   39 1

#	End of record

