#	Name: ASD01884817
#	Creating user name:	WinNT
#	Creation time:	15. 06. 2019 19:48

#	Modifying user name:	WinNT
#	Modification time:	15. 06. 2019 19:48

#	Program:	/corina/corina34_cracker 3.40 0067  02.08.2006

@<TRIPOS>MOLECULE
ASD01884817
  48   51    0    0    0
SMALL
NO_CHARGES


@<TRIPOS>ATOM
   1 N1            -0.0162     1.3436     0.0094 N.am    
   2 C2             0.0021    -0.0041     0.0020 C.2     
   3 O3             1.0625    -0.5972    -0.0113 O.2     
   4 C4            -1.2709    -0.7623     0.0101 C.ar    
   5 C5            -1.2445    -2.1525     0.0081 C.ar    
   6 C6            -2.4577    -2.8450     0.0139 C.ar    
   7 C7            -3.6483    -2.1082     0.0214 C.ar    
   8 C8            -4.9577    -2.8519     0.0171 C.3     
   9 C9            -6.0916    -1.9144     0.4342 C.3     
  10 N10           -6.0019    -0.6865    -0.3717 N.3     
  11 C11           -7.2409     0.0970    -0.2771 C.3     
  12 C12           -7.2116     1.2081    -1.2948 C.ar    
  13 C13           -7.8113     1.0423    -2.5330 C.ar    
  14 C14           -7.7589     2.0920    -3.4368 C.ar    
  15 N15           -7.1421     3.2100    -3.0897 N.ar    
  16 C16           -6.5827     3.3319    -1.9024 C.ar    
  17 N17           -6.6175     2.3574    -1.0160 N.ar    
  18 C18           -5.8902     4.6223    -1.5470 C.3     
  19 F19           -6.2616     5.6171    -2.4578 F       
  20 F20           -6.2616     5.0104    -0.2553 F       
  21 F21           -4.5044     4.4373    -1.5980 F       
  22 C22           -4.8433     0.1106     0.0426 C.3     
  23 C23           -3.5918    -0.7299     0.0266 C.ar    
  24 N24           -2.4241    -0.1091     0.0246 N.ar    
  25 C25           -2.4840    -4.3274     0.0116 C.ar    
  26 C26           -2.4974    -5.0263    -1.1966 C.ar    
  27 F27           -2.4866    -4.3533    -2.3680 F       
  28 C28           -2.5215    -6.4083    -1.1920 C.ar    
  29 C29           -2.5326    -7.0992     0.0074 C.ar    
  30 Cl30          -2.5634    -8.8349     0.0047 Cl      
  31 C31           -2.5189    -6.4120     1.2089 C.ar    
  32 C32           -2.4895    -5.0301     1.2177 C.ar    
  33 F33           -2.4710    -4.3609     2.3911 F       
  34 H34            0.8172     1.8399     0.0041 H       
  35 H35           -0.8627     1.8171     0.0160 H       
  36 H36           -0.3054    -2.6858     0.0018 H       
  37 H37           -5.1538    -3.2336    -0.9849 H       
  38 H38           -4.9023    -3.6863     0.7162 H       
  39 H39           -7.0516    -2.3994     0.2572 H       
  40 H40           -5.9922    -1.6670     1.4911 H       
  41 H41           -8.0960    -0.5506    -0.4708 H       
  42 H42           -7.3264     0.5223     0.7228 H       
  43 H43           -8.3073     0.1173    -2.7878 H       
  44 H44           -8.2150     1.9984    -4.4113 H       
  45 H45           -4.7215     0.9513    -0.6404 H       
  46 H46           -5.0093     0.4905     1.0507 H       
  47 H47           -2.5319    -6.9502    -2.1261 H       
  48 H48           -2.5277    -6.9568     2.1413 H       
@<TRIPOS>BOND
   1    1    2 am
   2    1   34 1
   3    1   35 1
   4    2    3 2
   5    2    4 1
   6    4   24 ar
   7    4    5 ar
   8    5    6 ar
   9    5   36 1
  10    6    7 ar
  11    6   25 1
  12    7   23 ar
  13    7    8 1
  14    8    9 1
  15    8   37 1
  16    8   38 1
  17    9   10 1
  18    9   39 1
  19    9   40 1
  20   10   11 1
  21   10   22 1
  22   11   12 1
  23   11   41 1
  24   11   42 1
  25   12   17 ar
  26   12   13 ar
  27   13   14 ar
  28   13   43 1
  29   14   15 ar
  30   14   44 1
  31   15   16 ar
  32   16   17 ar
  33   16   18 1
  34   18   19 1
  35   18   20 1
  36   18   21 1
  37   22   23 1
  38   22   45 1
  39   22   46 1
  40   23   24 ar
  41   25   32 ar
  42   25   26 ar
  43   26   27 1
  44   26   28 ar
  45   28   29 ar
  46   28   47 1
  47   29   30 1
  48   29   31 ar
  49   31   32 ar
  50   31   48 1
  51   32   33 1

#	End of record

