#	Name: ASD05173003
#	Creating user name:	WinNT
#	Creation time:	15. 06. 2019 20:57

#	Modifying user name:	WinNT
#	Modification time:	15. 06. 2019 20:57

#	Program:	/corina/corina34_cracker 3.40 0067  02.08.2006

@<TRIPOS>MOLECULE
ASD05173003
  39   42    0    0    0
SMALL
NO_CHARGES


@<TRIPOS>ATOM
   1 C1             1.9893     3.6443    -1.9591 C.ar    
   2 C2             3.3407     3.9064    -1.8066 C.ar    
   3 C3             4.2281     2.8681    -1.6349 C.ar    
   4 C4             3.7764     1.5376    -1.6128 C.ar    
   5 C5             2.4147     1.2785    -1.7628 C.ar    
   6 C6             1.5310     2.3444    -1.9371 C.ar    
   7 N7             4.7170     0.5722    -1.4485 N.2     
   8 C8             4.6134    -0.4716    -0.7097 C.2     
   9 C9             3.3585    -0.7707     0.0675 C.3     
  10 C10            2.2340    -0.9762    -0.9157 C.2     
  11 N11            1.8670     0.0021    -1.7451 N.am    
  12 O12            1.6573    -2.0425    -0.9532 O.2     
  13 C13            5.7519    -1.4015    -0.6189 C.ar    
  14 C14            6.8702    -1.2236    -1.4393 C.ar    
  15 C15            7.9369    -2.0951    -1.3533 C.ar    
  16 C16            7.9069    -3.1471    -0.4585 C.ar    
  17 C17            6.7974    -3.3364     0.3656 C.ar    
  18 C18            5.7205    -2.4603     0.2908 C.ar    
  19 C19            6.7691    -4.4680     1.3250 C.ar    
  20 Br20           3.9669     5.6905    -1.8347 Br      
  21 C21            7.8441    -5.3563     1.4192 C.ar    
  22 C22            7.7769    -6.3948     2.3252 C.ar    
  23 N23            6.7174    -6.5543     3.0950 N.ar    
  24 C24            5.6822    -5.7386     3.0374 C.ar    
  25 C25            5.6694    -4.6712     2.1631 C.ar    
  26 H26            1.2932     4.4594    -2.0910 H       
  27 H27            5.2809     3.0778    -1.5164 H       
  28 H28            0.4756     2.1486    -2.0565 H       
  29 H29            3.4992    -1.6750     0.6596 H       
  30 H30            3.1242     0.0670     0.7244 H       
  31 H31            1.1638    -0.1927    -2.3843 H       
  32 H32            6.8991    -0.4034    -2.1414 H       
  33 H33            8.7987    -1.9542    -1.9888 H       
  34 H34            8.7451    -3.8253    -0.3969 H       
  35 H35            4.8597    -2.6034     0.9271 H       
  36 H36            8.7143    -5.2318     0.7919 H       
  37 H37            8.6024    -7.0865     2.4050 H       
  38 H38            4.8352    -5.9062     3.6862 H       
  39 H39            4.8185    -4.0074     2.1213 H       
@<TRIPOS>BOND
   1    1    2 ar
   2    1    6 ar
   3    1   26 1
   4    2    3 ar
   5    2   20 1
   6    3    4 ar
   7    3   27 1
   8    4    5 ar
   9    4    7 1
  10    5    6 ar
  11    5   11 1
  12    6   28 1
  13    7    8 2
  14    8    9 1
  15    8   13 1
  16    9   10 1
  17    9   29 1
  18    9   30 1
  19   10   11 am
  20   10   12 2
  21   11   31 1
  22   13   14 ar
  23   13   18 ar
  24   14   15 ar
  25   14   32 1
  26   15   16 ar
  27   15   33 1
  28   16   17 ar
  29   16   34 1
  30   17   18 ar
  31   17   19 1
  32   18   35 1
  33   19   21 ar
  34   19   25 ar
  35   21   22 ar
  36   21   36 1
  37   22   23 ar
  38   22   37 1
  39   23   24 ar
  40   24   25 ar
  41   24   38 1
  42   25   39 1

#	End of record

