#	Name: ASD02500785
#	Creating user name:	WinNT
#	Creation time:	15. 06. 2019 20:23

#	Modifying user name:	WinNT
#	Modification time:	15. 06. 2019 20:23

#	Program:	/corina/corina34_cracker 3.40 0067  02.08.2006

@<TRIPOS>MOLECULE
ASD02500785
  51   54    0    0    0
SMALL
NO_CHARGES


@<TRIPOS>ATOM
   1 N1            -0.0179     1.4654     0.0101 N.am    
   2 C2             0.0021    -0.0041     0.0020 C.3     
   3 C3             0.8261    -0.4764    -1.2022 C.3     
   4 N4             2.1040     0.2493    -1.2105 N.am    
   5 C5             2.0841     1.7188    -1.2024 C.3     
   6 C6             1.2601     2.1912     0.0018 C.3     
   7 C7             0.6414    -0.5160     1.2943 C.3     
   8 S8             3.5407    -0.5740    -1.2281 S.o2    
   9 O9             4.5153     0.3081    -0.6883 O.2     
  10 O10            3.2726    -1.8605    -0.6876 O.2     
  11 O11            4.9957    -1.4369    -6.8736 O.3     
  12 C12            4.6648    -1.2239    -5.5707 C.ar    
  13 C13            5.0892    -0.0786    -4.9069 C.ar    
  14 O14            5.8413     0.8586    -5.5461 O.3     
  15 C15            6.4799     0.4515    -6.7612 C.3     
  16 C16            5.4505    -0.3003    -7.6161 C.3     
  17 C17            4.7441     0.1162    -3.5782 C.ar    
  18 C18            3.9775    -0.8248    -2.9166 C.ar    
  19 C19            3.5534    -1.9623    -3.5772 C.ar    
  20 C20            3.8954    -2.1635    -4.9014 C.ar    
  21 S21           -1.4546     2.2888     0.0214 S.o2    
  22 O22           -1.1840     3.5755    -0.5173 O.2     
  23 O23           -2.4267     1.4070    -0.5232 O.2     
  24 C24           -1.8991     2.5390     1.7080 C.ar    
  25 C25           -1.4780     3.6771     2.3737 C.ar    
  26 C26           -1.8279     3.8726     3.6992 C.ar    
  27 C27           -2.5973     2.9319     4.3573 C.ar    
  28 C28           -3.0184     1.7951     3.6936 C.ar    
  29 C29           -2.6745     1.6002     2.3664 C.ar    
  30 F30           -3.0913     0.4918     1.7161 F       
  31 F31           -0.7255     4.5966     1.7308 F       
  32 H32           -1.0165    -0.3833    -0.0803 H       
  33 H33            1.0139    -1.5469    -1.1197 H       
  34 H34            0.2810    -0.2679    -2.1228 H       
  35 H35            3.1027     2.0980    -1.1201 H       
  36 H36            1.6286     2.0836    -2.1231 H       
  37 H37            1.0723     3.2617    -0.0807 H       
  38 H38            1.8051     1.9827     0.9224 H       
  39 H39            0.0627    -0.1665     2.1493 H       
  40 H40            0.6551    -1.6059     1.2859 H       
  41 H41            1.6620    -0.1405     1.3683 H       
  42 H42            6.8358     1.3289    -7.3013 H       
  43 H43            7.3190    -0.2058    -6.5331 H       
  44 H44            5.9150    -0.6301    -8.5453 H       
  45 H45            4.6081     0.3549    -7.8380 H       
  46 H46            5.0744     1.0041    -3.0596 H       
  47 H47            2.9541    -2.6955    -3.0579 H       
  48 H48            3.5627    -3.0532    -5.4154 H       
  49 H49           -1.4991     4.7604     4.2190 H       
  50 H50           -2.8695     3.0851     5.3912 H       
  51 H51           -3.6194     1.0605     4.2089 H       
@<TRIPOS>BOND
   1    1    2 1
   2    1    6 1
   3    1   21 am
   4    2    3 1
   5    2    7 1
   6    2   32 1
   7    3    4 1
   8    3   33 1
   9    3   34 1
  10    4    5 1
  11    4    8 am
  12    5    6 1
  13    5   35 1
  14    5   36 1
  15    6   37 1
  16    6   38 1
  17    7   39 1
  18    7   40 1
  19    7   41 1
  20    8    9 2
  21    8   10 2
  22    8   18 1
  23   11   12 1
  24   11   16 1
  25   12   13 ar
  26   12   20 ar
  27   13   14 1
  28   13   17 ar
  29   14   15 1
  30   15   16 1
  31   15   42 1
  32   15   43 1
  33   16   44 1
  34   16   45 1
  35   17   18 ar
  36   17   46 1
  37   18   19 ar
  38   19   20 ar
  39   19   47 1
  40   20   48 1
  41   21   22 2
  42   21   23 2
  43   21   24 1
  44   24   25 ar
  45   24   29 ar
  46   25   26 ar
  47   25   31 1
  48   26   27 ar
  49   26   49 1
  50   27   28 ar
  51   27   50 1
  52   28   29 ar
  53   28   51 1
  54   29   30 1

#	End of record

