#	Name: ASD00170484
#	Creating user name:	WinNT
#	Creation time:	15. 06. 2019 18:32

#	Modifying user name:	WinNT
#	Modification time:	15. 06. 2019 18:32

#	Program:	/corina/corina34_cracker 3.40 0067  02.08.2006

@<TRIPOS>MOLECULE
ASD00170484
  43   46    0    0    0
SMALL
NO_CHARGES


@<TRIPOS>ATOM
   1 C1            -0.0167     1.3817     0.0096 C.ar    
   2 C2             0.0021    -0.0041     0.0020 C.ar    
   3 C3             1.2249    -0.6859    -0.0134 C.ar    
   4 C4             2.4112     0.0355    -0.0209 C.ar    
   5 C5             2.3880     1.4234    -0.0132 C.ar    
   6 C6             1.1646     2.0957     0.0022 C.ar    
   7 C7             3.8608    -0.3765    -0.0370 C.3     
   8 C8             4.6507     0.9142    -0.0376 C.2     
   9 C9             3.7896     1.9488    -0.0238 C.2     
  10 S10            6.3014     1.5331    -0.0506 S.3     
  11 C11            5.6851     3.1806    -0.0361 C.2     
  12 N12            4.3952     3.1567    -0.0235 N.2     
  13 N13            6.4642     4.3263    -0.0371 N.pl3   
  14 C14            1.2528    -2.1689    -0.0211 C.ar    
  15 C15            1.7649    -2.8514    -1.1227 C.ar    
  16 C16            1.7906    -4.2316    -1.1293 C.ar    
  17 C17            1.3080    -4.9416    -0.0409 C.ar    
  18 C18            0.7954    -4.2646     1.0631 C.ar    
  19 C19            0.7721    -2.8819     1.0762 C.ar    
  20 O20            1.3346    -6.3011    -0.0514 O.3     
  21 C21            1.8733    -6.9305    -1.2158 C.3     
  22 O22           -1.1648    -0.7002     0.0099 O.3     
  23 C23           -2.3741     0.0608     0.0261 C.3     
  24 O24            0.3220    -4.9630     2.1297 O.3     
  25 C25           -0.1889    -4.2038     3.2273 C.3     
  26 H26           -0.9609     1.9059     0.0170 H       
  27 H27            1.1424     3.1754     0.0082 H       
  28 H28            4.0961    -0.9617     0.8520 H       
  29 H29            4.0790    -0.9521    -0.9365 H       
  30 H30            7.4315     4.2550    -0.0464 H       
  31 H31            6.0423     5.1997    -0.0285 H       
  32 H32            2.1414    -2.3004    -1.9718 H       
  33 H33            2.1871    -4.7592    -1.9841 H       
  34 H34            0.3753    -2.3556     1.9317 H       
  35 H35            1.8355    -8.0130    -1.0940 H       
  36 H36            1.2873    -6.6423    -2.0885 H       
  37 H37            2.9080    -6.6162    -1.3529 H       
  38 H38           -2.3991     0.6845     0.9197 H       
  39 H39           -2.4168     0.6940    -0.8602 H       
  40 H40           -3.2290    -0.6154     0.0310 H       
  41 H41            0.5985    -3.5625     3.6232 H       
  42 H42           -1.0218    -3.5886     2.8870 H       
  43 H43           -0.5331    -4.8813     4.0087 H       
@<TRIPOS>BOND
   1    1    2 ar
   2    1    6 ar
   3    1   26 1
   4    2    3 ar
   5    2   22 1
   6    3    4 ar
   7    3   14 1
   8    4    5 ar
   9    4    7 1
  10    5    6 ar
  11    5    9 1
  12    6   27 1
  13    7    8 1
  14    7   28 1
  15    7   29 1
  16    8    9 2
  17    8   10 1
  18    9   12 1
  19   10   11 1
  20   11   12 2
  21   11   13 1
  22   13   30 1
  23   13   31 1
  24   14   15 ar
  25   14   19 ar
  26   15   16 ar
  27   15   32 1
  28   16   17 ar
  29   16   33 1
  30   17   18 ar
  31   17   20 1
  32   18   19 ar
  33   18   24 1
  34   19   34 1
  35   20   21 1
  36   21   35 1
  37   21   36 1
  38   21   37 1
  39   22   23 1
  40   23   38 1
  41   23   39 1
  42   23   40 1
  43   24   25 1
  44   25   41 1
  45   25   42 1
  46   25   43 1

#	End of record

