#	Name: ASD05740130
#	Creating user name:	WinNT
#	Creation time:	15. 06. 2019 21:02

#	Modifying user name:	WinNT
#	Modification time:	15. 06. 2019 21:02

#	Program:	/corina/corina34_cracker 3.40 0067  02.08.2006

@<TRIPOS>MOLECULE
ASD05740130
  52   53    0    0    0
SMALL
NO_CHARGES


@<TRIPOS>ATOM
   1 C1            -0.0188     1.5385     0.0105 C.3     
   2 C2            -2.7240    -1.9754     1.2180 C.3     
   3 C3            -1.8692    -4.1368     0.2250 C.2     
   4 C4            -1.1098    -4.8257    -0.7090 C.2     
   5 C5            -1.9007    -2.7306     0.2066 C.2     
   6 C6            -1.1790    -2.0558    -0.7360 C.2     
   7 C7            -0.4216    -2.7802    -1.6658 C.2     
   8 O8            -0.4008    -4.1193    -1.6369 O.3     
   9 C9            -1.1972    -0.5495    -0.7759 C.3     
  10 C10            0.0021    -0.0041     0.0020 C.3     
  11 S11            1.5650    -0.4413    -0.8457 S.3     
  12 O12            0.2255    -2.1850    -2.5113 O.2     
  13 C13            1.4296     2.0573    -0.0005 C.3     
  14 C14            2.1834     1.2667    -1.1022 C.3     
  15 N15            1.4461     3.4888    -0.3117 N.am    
  16 S16            2.5876     4.4723     0.3752 S.o2    
  17 O17            2.3609     5.7748    -0.1457 O.2     
  18 O18            2.5847     4.1800     1.7658 O.2     
  19 C19           -1.1842    -6.2048    -0.5578 C.2     
  20 C20           -1.9596    -6.6406     0.4431 C.2     
  21 S21           -2.6804    -5.2813     1.2888 S.3     
  22 O22           -2.1631    -7.9436     0.7549 O.3     
  23 C23           -3.0261    -8.2191     1.8601 C.3     
  24 N24            4.0627     3.9883    -0.2012 N.am    
  25 C25            4.3733     4.1259    -1.6263 C.3     
  26 H26           -0.5444     1.9021    -0.8725 H       
  27 H27           -0.5274     1.8925     0.9072 H       
  28 H28           -3.2238    -2.6823     1.8803 H       
  29 H29           -2.0735    -1.3261     1.8041 H       
  30 H30           -3.4700    -1.3716     0.7013 H       
  31 H31           -1.1424    -0.2127    -1.8111 H       
  32 H32           -2.1197    -0.1852    -0.3237 H       
  33 H33           -0.0001    -0.3897     1.0215 H       
  34 H34            1.8960     1.8818     0.9689 H       
  35 H35            3.2611     1.3167    -0.9470 H       
  36 H36            1.9156     1.6316    -2.0937 H       
  37 H37            0.7884     3.8604    -0.9202 H       
  38 H38           -0.6502    -6.8828    -1.2070 H       
  39 H39           -4.0155    -7.8079     1.6598 H       
  40 H40           -3.1026    -9.2972     2.0015 H       
  41 H41           -2.6186    -7.7623     2.7619 H       
  42 H42            4.7210     3.6137     0.4047 H       
  43 H43            4.3105     5.1759    -1.9121 H       
  44 H44            5.3815     3.7575    -1.8157 H       
  45 H45            3.6589     3.5467    -2.2114 H       
  46 C46           10.9087    13.4441     9.6302 C.3     
  47 N47           10.9285    11.9793     9.6222 N.2     
  48 C48           11.4692    11.3668     8.6762 C.1     
  49 O49           11.9918    10.7748     7.7619 O.2     
  50 H50           11.9313    13.8214     9.6225 H       
  51 H51           10.3815    13.8052     8.7472 H       
  52 H52           10.3985    13.7957    10.5270 H       
@<TRIPOS>BOND
   1    1   10 1
   2    1   13 1
   3    1   26 1
   4    1   27 1
   5    2    5 1
   6    2   28 1
   7    2   29 1
   8    2   30 1
   9    3    4 2
  10    3    5 1
  11    3   21 1
  12    4   19 1
  13    4    8 1
  14    5    6 2
  15    6    7 1
  16    6    9 1
  17    7    8 1
  18    7   12 2
  19    9   10 1
  20    9   31 1
  21    9   32 1
  22   10   11 1
  23   10   33 1
  24   11   14 1
  25   13   14 1
  26   13   15 1
  27   13   34 1
  28   14   35 1
  29   14   36 1
  30   15   16 am
  31   15   37 1
  32   16   17 2
  33   16   18 2
  34   16   24 am
  35   19   20 2
  36   19   38 1
  37   20   21 1
  38   20   22 1
  39   22   23 1
  40   23   39 1
  41   23   40 1
  42   23   41 1
  43   24   25 1
  44   24   42 1
  45   25   43 1
  46   25   44 1
  47   25   45 1
  48   46   47 1
  49   46   50 1
  50   46   51 1
  51   46   52 1
  52   47   48 2
  53   48   49 2

#	End of record

