#	Name: ASD02198736
#	Creating user name:	WinNT
#	Creation time:	15. 06. 2019 20:20

#	Modifying user name:	WinNT
#	Modification time:	15. 06. 2019 20:20

#	Program:	/corina/corina34_cracker 3.40 0067  02.08.2006

@<TRIPOS>MOLECULE
ASD02198736
  53   57    0    0    0
SMALL
NO_CHARGES


@<TRIPOS>ATOM
   1 C1             0.3551     0.3261    -0.0226 C.2     
   2 C2             0.3424    -0.9091     0.5390 C.2     
   3 N3             1.4902    -1.4992     0.9418 N.pl3   
   4 N4             2.6426    -0.9498     0.8257 N.2     
   5 C5             2.7970     0.2458     0.2981 C.2     
   6 C6             1.6060     0.9715    -0.1715 C.2     
   7 C7             1.4165    -2.7733     1.5146 C.ar    
   8 C8             1.9632    -3.0040     2.7763 C.ar    
   9 C9             1.8885    -4.2665     3.3404 C.ar    
  10 C10            1.2700    -5.2989     2.6490 C.ar    
  11 C11            0.7259    -5.0669     1.3918 C.ar    
  12 C12            0.7937    -3.8085     0.8294 C.ar    
  13 C13            4.1403     0.8485     0.1805 C.2     
  14 N14            4.7249     1.3120    -0.9645 N.pl3   
  15 N15            5.9939     1.7997    -0.6284 N.2     
  16 C16            6.1779     1.6430     0.6583 C.2     
  17 C17            5.0375     1.0548     1.2054 C.2     
  18 C18            4.1567     1.3012    -2.2447 C.ar    
  19 C19            4.2729     2.4142    -3.0670 C.ar    
  20 C20            3.7120     2.4003    -4.3290 C.ar    
  21 C21            3.0351     1.2795    -4.7740 C.ar    
  22 C22            2.9172     0.1698    -3.9574 C.ar    
  23 C23            3.4809     0.1754    -2.6966 C.ar    
  24 O24            1.6934     2.0841    -0.6694 O.2     
  25 N25            1.1947    -6.5770     3.2195 N.pl3   
  26 C26            1.3218    -7.7582     2.5582 C.2     
  27 N27            0.9811    -6.8652     4.5736 N.2     
  28 C28            0.9737    -8.1652     4.7226 C.2     
  29 C29            1.1854    -8.7551     3.4725 C.2     
  30 O30            1.5439    -7.9138     1.2280 O.3     
  31 C31            1.5605    -9.2513     0.7251 C.3     
  32 F32            2.5442    -9.9885     1.3930 F       
  33 F33            0.3107    -9.8440     0.9349 F       
  34 O34            2.5687    -1.9916     3.4513 O.3     
  35 C35            3.1062    -2.3005     4.7387 C.3     
  36 H36           -0.5590     0.7994    -0.3494 H       
  37 H37           -0.5966    -1.4273     0.6662 H       
  38 H38            2.3115    -4.4477     4.3174 H       
  39 H39            0.2451    -5.8718     0.8556 H       
  40 H40            0.3700    -3.6306    -0.1479 H       
  41 H41            7.0646     1.9256     1.2062 H       
  42 H42            4.8876     0.8006     2.2443 H       
  43 H43            4.8012     3.2900    -2.7199 H       
  44 H44            3.8018     3.2657    -4.9688 H       
  45 H45            2.5973     1.2711    -5.7613 H       
  46 H46            2.3877    -0.7039    -4.3077 H       
  47 H47            3.3887    -0.6918    -2.0594 H       
  48 H48            0.8315    -8.6932     5.6540 H       
  49 H49            1.2318    -9.8148     3.2694 H       
  50 H50            1.7804    -9.2354    -0.3423 H       
  51 H51            2.3069    -2.6509     5.3917 H       
  52 H52            3.8621    -3.0796     4.6395 H       
  53 H53            3.5598    -1.4067     5.1671 H       
@<TRIPOS>BOND
   1    1    2 2
   2    1    6 1
   3    1   36 1
   4    2    3 1
   5    2   37 1
   6    3    4 1
   7    3    7 1
   8    4    5 2
   9    5    6 1
  10    5   13 1
  11    6   24 2
  12    7    8 ar
  13    7   12 ar
  14    8    9 ar
  15    8   34 1
  16    9   10 ar
  17    9   38 1
  18   10   11 ar
  19   10   25 1
  20   11   12 ar
  21   11   39 1
  22   12   40 1
  23   13   14 1
  24   13   17 2
  25   14   15 1
  26   14   18 1
  27   15   16 2
  28   16   17 1
  29   16   41 1
  30   17   42 1
  31   18   19 ar
  32   18   23 ar
  33   19   20 ar
  34   19   43 1
  35   20   21 ar
  36   20   44 1
  37   21   22 ar
  38   21   45 1
  39   22   23 ar
  40   22   46 1
  41   23   47 1
  42   25   27 1
  43   25   26 1
  44   26   30 1
  45   26   29 2
  46   27   28 2
  47   28   29 1
  48   28   48 1
  49   29   49 1
  50   30   31 1
  51   31   32 1
  52   31   33 1
  53   31   50 1
  54   34   35 1
  55   35   51 1
  56   35   52 1
  57   35   53 1

#	End of record

