#	Name: ASD01948208
#	Creating user name:	WinNT
#	Creation time:	15. 06. 2019 20:13

#	Modifying user name:	WinNT
#	Modification time:	15. 06. 2019 20:13

#	Program:	/corina/corina34_cracker 3.40 0067  02.08.2006

@<TRIPOS>MOLECULE
ASD01948208
  43   45    0    0    0
SMALL
NO_CHARGES


@<TRIPOS>ATOM
   1 C1             0.1168     1.1123    -0.3553 C.ar    
   2 C2             0.1666    -0.2375    -0.1116 C.ar    
   3 C3             1.3525    -0.8408     0.3220 C.ar    
   4 C4             2.4941    -0.0652     0.5085 C.ar    
   5 C5             2.4516     1.3010     0.2641 C.ar    
   6 C6             1.2584     1.8979    -0.1705 C.ar    
   7 C7            -0.8601    -1.3389    -0.2107 C.3     
   8 N8            -0.1787    -2.5747     0.1898 N.am    
   9 C9             1.0975    -2.2865     0.4969 C.2     
  10 C10            2.7673     2.7734     2.6085 C.ar    
  11 C11            3.7296     2.8444     1.6087 C.ar    
  12 N12            3.5894     2.0763     0.4501 N.pl3   
  13 C13            2.9023     3.5303     3.7529 C.ar    
  14 C14            4.0069     4.3693     3.9077 C.ar    
  15 C15            4.9734     4.4398     2.9021 C.ar    
  16 C16            4.8334     3.6804     1.7592 C.ar    
  17 F17            5.7677     3.7471     0.7855 F       
  18 C18            4.1487     5.1567     5.0954 C.1     
  19 O19            1.9238    -3.0981     0.8650 O.2     
  20 C20            1.2089     3.3499    -0.4320 C.2     
  21 O21            2.2258     4.0136    -0.3713 O.2     
  22 N22            0.0364     3.9399    -0.7379 N.am    
  23 O23           -0.0111     5.3327    -0.9887 O.3     
  24 C24           -1.3168     5.8229    -1.3004 C.3     
  25 C25           -1.2489     7.3307    -1.5513 C.3     
  26 O26           -0.4616     7.5848    -2.7164 O.3     
  27 C27            4.2650     5.8022     6.0690 C.1     
  28 H28           -0.8026     1.5666    -0.6939 H       
  29 H29            3.4117    -0.5260     0.8434 H       
  30 H30           -1.6931    -1.1357     0.4623 H       
  31 H31           -1.2191    -1.4248    -1.2362 H       
  32 H32           -0.5832    -3.4555     0.2274 H       
  33 H33            1.9102     2.1276     2.4871 H       
  34 H34            4.2865     2.0844    -0.2244 H       
  35 H35            2.1534     3.4744     4.5291 H       
  36 H36            5.8292     5.0882     3.0191 H       
  37 H37           -0.7749     3.4104    -0.7863 H       
  38 H38           -1.6891     5.3223    -2.1941 H       
  39 H39           -1.9886     5.6234    -0.4656 H       
  40 H40           -2.2560     7.7197    -1.7013 H       
  41 H41           -0.7940     7.8220    -0.6912 H       
  42 H42           -0.3755     8.5225    -2.9361 H       
  43 H43            4.3690     6.3796     6.9399 H       
@<TRIPOS>BOND
   1    1    2 ar
   2    1    6 ar
   3    1   28 1
   4    2    3 ar
   5    2    7 1
   6    3    4 ar
   7    3    9 1
   8    4    5 ar
   9    4   29 1
  10    5    6 ar
  11    5   12 1
  12    6   20 1
  13    7    8 1
  14    7   30 1
  15    7   31 1
  16    8    9 am
  17    8   32 1
  18    9   19 2
  19   10   11 ar
  20   10   13 ar
  21   10   33 1
  22   11   12 1
  23   11   16 ar
  24   12   34 1
  25   13   14 ar
  26   13   35 1
  27   14   15 ar
  28   14   18 1
  29   15   16 ar
  30   15   36 1
  31   16   17 1
  32   18   27 3
  33   20   21 2
  34   20   22 am
  35   22   23 1
  36   22   37 1
  37   23   24 1
  38   24   25 1
  39   24   38 1
  40   24   39 1
  41   25   26 1
  42   25   40 1
  43   25   41 1
  44   26   42 1
  45   27   43 1

#	End of record

