#	Name: ASD03331897
#	Creating user name:	WinNT
#	Creation time:	15. 06. 2019 20:40

#	Modifying user name:	WinNT
#	Modification time:	15. 06. 2019 20:40

#	Program:	/corina/corina34_cracker 3.40 0067  02.08.2006

@<TRIPOS>MOLECULE
ASD03331897
  63   66    0    0    0
SMALL
NO_CHARGES


@<TRIPOS>ATOM
   1 C1             0.1610     1.2190     0.7160 C.2     
   2 N2             0.2494    -0.1102     0.9859 N.pl3   
   3 C3             1.5767    -0.4287     1.0456 C.2     
   4 N4             2.2782     0.6642     0.8403 N.2     
   5 C5             1.4341     1.6981     0.6369 C.2     
   6 C6             1.8209     3.0959     0.3753 C.2     
   7 O7             0.9643     3.9426     0.2068 O.2     
   8 N8             3.1240     3.4360     0.3229 N.am    
   9 C9             3.5086     4.8255     0.0629 C.3     
  10 C10            3.5342     5.0737    -1.4466 C.3     
  11 C11            2.1185     4.9357    -2.0102 C.3     
  12 C12            4.8774     5.0839     0.6378 C.2     
  13 C13            4.0578     6.4845    -1.7227 C.3     
  14 C14            4.4519     4.0489    -2.1164 C.3     
  15 O15            5.5440     4.1606     1.0551 O.2     
  16 N16            5.3609     6.3409     0.6881 N.am    
  17 C17            6.7223     6.5833     1.1719 C.3     
  18 C18           -0.8860    -1.0139     1.1897 C.3     
  19 C19           -1.9145    -0.7863     0.0774 C.3     
  20 C20           -2.8743     0.3278     0.4823 C.3     
  21 N21           -2.1928     1.3439     1.2869 N.3     
  22 C22           -1.1164     1.9952     0.5257 C.3     
  23 C23           -3.1471     2.3346     1.8022 C.3     
  24 C24            2.1287    -1.7703     1.2976 C.2     
  25 C25            3.4164    -2.1379     1.0796 C.2     
  26 O26            1.4318    -2.8167     1.7851 O.3     
  27 C27            2.2187    -3.9053     1.9025 C.ar    
  28 C28            3.5075    -3.5463     1.4680 C.ar    
  29 C29            1.9894    -5.2027     2.3433 C.ar    
  30 C30            3.0201    -6.1185     2.3470 C.ar    
  31 C31            4.2890    -5.7597     1.9148 C.ar    
  32 C32            4.5382    -4.4879     1.4801 C.ar    
  33 H33            3.8073     2.7607     0.4573 H       
  34 H34            2.7863     5.4956     0.5291 H       
  35 H35            1.4647     5.6658    -1.5330 H       
  36 H36            2.1367     5.1125    -3.0856 H       
  37 H37            1.7454     3.9306    -1.8135 H       
  38 H38            5.0187     6.6191    -1.2260 H       
  39 H39            4.1816     6.6224    -2.7968 H       
  40 H40            3.3462     7.2171    -1.3419 H       
  41 H41            4.0788     3.0438    -1.9197 H       
  42 H42            4.4701     4.2257    -3.1918 H       
  43 H43            5.4604     4.1472    -1.7149 H       
  44 H44            4.8075     7.0851     0.4040 H       
  45 H45            6.9343     7.6520     1.1403 H       
  46 H46            6.8127     6.2251     2.1974 H       
  47 H47            7.4330     6.0530     0.5379 H       
  48 H48           -0.5395    -2.0469     1.1597 H       
  49 H49           -1.3447    -0.8102     2.1573 H       
  50 H50           -1.3990    -0.5046    -0.8408 H       
  51 H51           -2.4761    -1.7052    -0.0906 H       
  52 H52           -3.2793     0.7949    -0.4154 H       
  53 H53           -3.6925    -0.0984     1.0628 H       
  54 H54           -0.9805     3.0148     0.8863 H       
  55 H55           -1.3777     2.0134    -0.5324 H       
  56 H56           -3.8887     1.8349     2.4255 H       
  57 H57           -2.6145     3.0774     2.3961 H       
  58 H58           -3.6462     2.8267     0.9675 H       
  59 H59            4.2129    -1.5171     0.6964 H       
  60 H60            1.0061    -5.4932     2.6826 H       
  61 H61            2.8379    -7.1262     2.6903 H       
  62 H62            5.0854    -6.4891     1.9244 H       
  63 H63            5.5275    -4.2135     1.1446 H       
@<TRIPOS>BOND
   1    1    2 1
   2    1    5 2
   3    1   22 1
   4    2    3 1
   5    2   18 1
   6    3    4 2
   7    3   24 1
   8    4    5 1
   9    5    6 1
  10    6    7 2
  11    6    8 am
  12    8    9 1
  13    8   33 1
  14    9   10 1
  15    9   12 1
  16    9   34 1
  17   10   11 1
  18   10   13 1
  19   10   14 1
  20   11   35 1
  21   11   36 1
  22   11   37 1
  23   12   15 2
  24   12   16 am
  25   13   38 1
  26   13   39 1
  27   13   40 1
  28   14   41 1
  29   14   42 1
  30   14   43 1
  31   16   17 1
  32   16   44 1
  33   17   45 1
  34   17   46 1
  35   17   47 1
  36   18   19 1
  37   18   48 1
  38   18   49 1
  39   19   20 1
  40   19   50 1
  41   19   51 1
  42   20   21 1
  43   20   52 1
  44   20   53 1
  45   21   22 1
  46   21   23 1
  47   22   54 1
  48   22   55 1
  49   23   56 1
  50   23   57 1
  51   23   58 1
  52   24   26 1
  53   24   25 2
  54   25   28 1
  55   25   59 1
  56   26   27 1
  57   27   28 ar
  58   27   29 ar
  59   28   32 ar
  60   29   30 ar
  61   29   60 1
  62   30   31 ar
  63   30   61 1
  64   31   32 ar
  65   31   62 1
  66   32   63 1

#	End of record

