#	Name: ASD02440059
#	Creating user name:	WinNT
#	Creation time:	15. 06. 2019 20:21

#	Modifying user name:	WinNT
#	Modification time:	15. 06. 2019 20:21

#	Program:	/corina/corina34_cracker 3.40 0067  02.08.2006

@<TRIPOS>MOLECULE
ASD02440059
  48   51    0    0    0
SMALL
NO_CHARGES


@<TRIPOS>ATOM
   1 N1             0.0130     1.3285    -0.6798 N.am    
   2 C2             0.0444    -0.0081    -0.7284 C.2     
   3 S3             1.7461    -0.4888    -0.6099 S.3     
   4 C4             2.3557     1.1743    -0.4973 C.2     
   5 C5             1.1444     2.0035    -0.5631 C.2     
   6 O6            -0.9124    -0.7515    -0.8334 O.2     
   7 C7            -1.2652     2.0397    -0.7616 C.3     
   8 C8            -1.8237     2.2299     0.6251 C.ar    
   9 O9             1.1796     3.2187    -0.5142 O.2     
  10 C10            3.6422     1.5849    -0.3781 C.2     
  11 C11            4.7057     0.6040    -0.1165 C.ar    
  12 C12            4.3786    -0.7105     0.2340 C.ar    
  13 C13            5.3798    -1.6272     0.4780 C.ar    
  14 C14            6.7072    -1.2520     0.3780 C.ar    
  15 C15            7.0433     0.0506     0.0306 C.ar    
  16 C16            6.0489     0.9791    -0.2226 C.ar    
  17 C17           -3.1672     1.4339     2.4407 C.ar    
  18 C18           -2.6521     1.2659     1.1721 C.ar    
  19 C19           -1.5014     3.3651     1.3477 C.ar    
  20 C20           -2.0092     3.5455     2.6175 C.ar    
  21 C21           -2.8502     2.5795     3.1733 C.ar    
  22 C22           -3.3986     2.7664     4.5323 C.2     
  23 O23           -4.1270     1.9224     5.0147 O.2     
  24 O24           -3.0908     3.8727     5.2365 O.3     
  25 O25            8.3498     0.4118    -0.0657 O.3     
  26 C26            8.8590     1.2264     0.8953 C.ar    
  27 C27            8.0942     1.5535     2.0059 C.ar    
  28 C28           10.1467     1.7280     0.7707 C.ar    
  29 C29           10.6621     2.5555     1.7493 C.ar    
  30 C30            9.8960     2.8841     2.8525 C.ar    
  31 C31            8.6144     2.3814     2.9817 C.ar    
  32 H32           -1.1103     3.0129    -1.2275 H       
  33 H33           -1.9670     1.4582    -1.3594 H       
  34 H34            3.8859     2.6326    -0.4754 H       
  35 H35            3.3432    -1.0070     0.3138 H       
  36 H36            5.1264    -2.6416     0.7485 H       
  37 H37            7.4861    -1.9748     0.5711 H       
  38 H38            6.3091     1.9918    -0.4930 H       
  39 H39           -3.8142     0.6811     2.8661 H       
  40 H40           -2.8961     0.3802     0.6044 H       
  41 H41           -0.8505     4.1113     0.9166 H       
  42 H42           -1.7566     4.4318     3.1805 H       
  43 H43           -3.4735     3.9506     6.1212 H       
  44 H44            7.0930     1.1615     2.1072 H       
  45 H45           10.7457     1.4713    -0.0906 H       
  46 H46           11.6645     2.9458     1.6529 H       
  47 H47           10.3008     3.5312     3.6165 H       
  48 H48            8.0195     2.6363     3.8463 H       
@<TRIPOS>BOND
   1    1    2 am
   2    1    5 am
   3    1    7 1
   4    2    3 1
   5    2    6 2
   6    3    4 1
   7    4    5 1
   8    4   10 2
   9    5    9 2
  10    7    8 1
  11    7   32 1
  12    7   33 1
  13    8   19 ar
  14    8   18 ar
  15   10   11 1
  16   10   34 1
  17   11   12 ar
  18   11   16 ar
  19   12   13 ar
  20   12   35 1
  21   13   14 ar
  22   13   36 1
  23   14   15 ar
  24   14   37 1
  25   15   16 ar
  26   15   25 1
  27   16   38 1
  28   17   18 ar
  29   17   21 ar
  30   17   39 1
  31   18   40 1
  32   19   20 ar
  33   19   41 1
  34   20   21 ar
  35   20   42 1
  36   21   22 1
  37   22   23 2
  38   22   24 1
  39   24   43 1
  40   25   26 1
  41   26   28 ar
  42   26   27 ar
  43   27   31 ar
  44   27   44 1
  45   28   29 ar
  46   28   45 1
  47   29   30 ar
  48   29   46 1
  49   30   31 ar
  50   30   47 1
  51   31   48 1

#	End of record

