#	Name: ASD03740078
#	Creating user name:	WinNT
#	Creation time:	15. 06. 2019 20:46

#	Modifying user name:	WinNT
#	Modification time:	15. 06. 2019 20:46

#	Program:	/corina/corina34_cracker 3.40 0067  02.08.2006

@<TRIPOS>MOLECULE
ASD03740078
  56   59    0    0    0
SMALL
NO_CHARGES


@<TRIPOS>ATOM
   1 C1             0.3214     0.8666    -0.2542 C.ar    
   2 C2             0.4214    -0.5186    -0.2842 C.ar    
   3 C3             1.6422    -1.1320    -0.2895 C.ar    
   4 C4             2.8038    -0.3642    -0.2651 C.ar    
   5 C5             2.7039     1.0402    -0.2351 C.ar    
   6 C6             1.4432     1.6445    -0.2297 C.ar    
   7 N7             4.1406    -0.6661    -0.2628 N.pl3   
   8 N8             4.8795     0.5210    -0.2320 N.2     
   9 C9             4.0751     1.5488    -0.2149 C.2     
  10 O10            4.4452     2.8564    -0.1843 O.3     
  11 C11            4.7058    -2.0174    -0.2878 C.3     
  12 C12            4.9088    -2.4506    -1.7168 C.ar    
  13 C13            5.8470     3.1337    -0.1688 C.3     
  14 C14            6.0670     4.6475    -0.1348 C.3     
  15 C15            7.5678     4.9444    -0.1183 C.3     
  16 C16            6.1066    -2.1876    -2.3551 C.ar    
  17 C17            6.2934    -2.5846    -3.6657 C.ar    
  18 C18            5.2814    -3.2455    -4.3389 C.ar    
  19 C19            4.0829    -3.5085    -3.6996 C.ar    
  20 C20            3.8994    -3.1159    -2.3872 C.ar    
  21 N21            7.7791     6.3977    -0.0856 N.3     
  22 C22            9.1578     6.7205     0.3036 C.3     
  23 Cl23           5.5150    -3.7440    -5.9853 Cl      
  24 C24            7.4348     7.0087    -1.3758 C.3     
  25 C25            7.5270     8.5320    -1.2612 C.3     
  26 C26            8.9502     8.9231    -0.8537 C.3     
  27 C27            9.3014     8.2352     0.4684 C.3     
  28 C28            9.4834     6.0404     1.6084 C.2     
  29 O29            8.6054     5.8124     2.4065 O.2     
  30 O30           10.7489     5.6878     1.8839 O.3     
  31 H31           -0.6529     1.3327    -0.2547 H       
  32 H32           -0.4769    -1.1180    -0.3033 H       
  33 H33            1.7063    -2.2099    -0.3123 H       
  34 H34            1.3571     2.7208    -0.2071 H       
  35 H35            5.6637    -2.0203     0.2323 H       
  36 H36            4.0216    -2.7066     0.2071 H       
  37 H37            6.2972     2.6812     0.7147 H       
  38 H38            6.3092     2.7194    -1.0648 H       
  39 H39            5.6168     5.1000    -1.0183 H       
  40 H40            5.6048     5.0618     0.7612 H       
  41 H41            8.0180     4.4918     0.7652 H       
  42 H42            8.0301     4.5301    -1.0143 H       
  43 H43            6.8963    -1.6713    -1.8295 H       
  44 H44            7.2290    -2.3787    -4.1643 H       
  45 H45            3.2926    -4.0244    -4.2247 H       
  46 H46            2.9639    -3.3212    -1.8881 H       
  47 H47            9.8440     6.3726    -0.4685 H       
  48 H48            8.1291     6.6593    -2.1399 H       
  49 H49            6.4189     6.7261    -1.6519 H       
  50 H50            7.2865     8.9846    -2.2232 H       
  51 H51            6.8230     8.8835    -0.5069 H       
  52 H52            9.6505     8.6061    -1.6265 H       
  53 H53            9.0092    10.0043    -0.7287 H       
  54 H54            8.6253     8.5820     1.2499 H       
  55 H55           10.3287     8.4757     0.7421 H       
  56 H56           10.9088     5.2541     2.7333 H       
@<TRIPOS>BOND
   1    1    2 ar
   2    1    6 ar
   3    1   31 1
   4    2    3 ar
   5    2   32 1
   6    3    4 ar
   7    3   33 1
   8    4    5 ar
   9    4    7 1
  10    5    6 ar
  11    5    9 1
  12    6   34 1
  13    7    8 1
  14    7   11 1
  15    8    9 2
  16    9   10 1
  17   10   13 1
  18   11   12 1
  19   11   35 1
  20   11   36 1
  21   12   16 ar
  22   12   20 ar
  23   13   14 1
  24   13   37 1
  25   13   38 1
  26   14   15 1
  27   14   39 1
  28   14   40 1
  29   15   21 1
  30   15   41 1
  31   15   42 1
  32   16   17 ar
  33   16   43 1
  34   17   18 ar
  35   17   44 1
  36   18   19 ar
  37   18   23 1
  38   19   20 ar
  39   19   45 1
  40   20   46 1
  41   21   22 1
  42   21   24 1
  43   22   28 1
  44   22   27 1
  45   22   47 1
  46   24   25 1
  47   24   48 1
  48   24   49 1
  49   25   26 1
  50   25   50 1
  51   25   51 1
  52   26   27 1
  53   26   52 1
  54   26   53 1
  55   27   54 1
  56   27   55 1
  57   28   29 2
  58   28   30 1
  59   30   56 1

#	End of record

