#	Name: ASD00170754
#	Creating user name:	WinNT
#	Creation time:	15. 06. 2019 18:32

#	Modifying user name:	WinNT
#	Modification time:	15. 06. 2019 18:32

#	Program:	/corina/corina34_cracker 3.40 0067  02.08.2006

@<TRIPOS>MOLECULE
ASD00170754
  42   44    0    0    0
SMALL
NO_CHARGES


@<TRIPOS>ATOM
   1 C1            -0.0169     1.2078     0.0002 C.2     
   2 O2             0.6389     0.9997    -1.0045 O.2     
   3 C3             0.4744     0.7390     1.3147 C.ar    
   4 C4             1.6300    -0.0396     1.3938 C.ar    
   5 C5             1.3941    -0.1385     3.7749 C.ar    
   6 C6            -0.2124     1.0783     2.4813 C.ar    
   7 C7             2.0828    -0.4736     2.6226 C.ar    
   8 C8             0.2510     0.6380     3.7038 C.ar    
   9 C9             1.8943    -0.6164     5.1137 C.3     
  10 C10           -1.3570     3.2722    -0.0189 C.2     
  11 C11           -1.2492     1.9047    -0.0888 C.2     
  12 C12           -2.5356     1.2485    -0.2642 C.2     
  13 C13           -3.5545     2.1122    -0.3207 C.2     
  14 S14           -2.9823     3.7628    -0.1619 S.3     
  15 C15           -2.6991    -0.2209    -0.3697 C.ar    
  16 C16           -3.3948    -0.9203     0.6159 C.ar    
  17 C17           -3.5438    -2.2880     0.5123 C.ar    
  18 C18           -3.0042    -2.9657    -0.5666 C.ar    
  19 C19           -2.3127    -2.2774    -1.5471 C.ar    
  20 C20           -2.1630    -0.9083    -1.4576 C.ar    
  21 C21           -4.2953    -3.0454     1.5766 C.3     
  22 F22           -5.6508    -3.1067     1.2361 F       
  23 F23           -3.7806    -4.3424     1.6773 F       
  24 F24           -4.1520    -2.3902     2.8043 F       
  25 C25           -4.9990     1.7207    -0.4975 C.3     
  26 N26           -0.2923     4.1330     0.1504 N.pl3   
  27 H27            2.1682    -0.3022     0.4951 H       
  28 H28           -1.1045     1.6846     2.4272 H       
  29 H29            2.9767    -1.0765     2.6852 H       
  30 H30           -0.2821     0.8961     4.6069 H       
  31 H31            2.5828     0.1199     5.5283 H       
  32 H32            1.0506    -0.7469     5.7913 H       
  33 H33            2.4113    -1.5680     4.9898 H       
  34 H34           -3.8158    -0.3925     1.4588 H       
  35 H35           -3.1230    -4.0364    -0.6433 H       
  36 H36           -1.8934    -2.8117    -2.3867 H       
  37 H37           -1.6274    -0.3712    -2.2264 H       
  38 H38           -5.4555     1.5654     0.4799 H       
  39 H39           -5.5287     2.5147    -1.0240 H       
  40 H40           -5.0574     0.7990    -1.0765 H       
  41 H41            0.5977     3.7792     0.3041 H       
  42 H42           -0.4337     5.0920     0.1158 H       
@<TRIPOS>BOND
   1    1    2 2
   2    1    3 1
   3    1   11 1
   4    3    4 ar
   5    3    6 ar
   6    4    7 ar
   7    4   27 1
   8    5    7 ar
   9    5    8 ar
  10    5    9 1
  11    6    8 ar
  12    6   28 1
  13    7   29 1
  14    8   30 1
  15    9   31 1
  16    9   32 1
  17    9   33 1
  18   10   11 2
  19   10   14 1
  20   10   26 1
  21   11   12 1
  22   12   13 2
  23   12   15 1
  24   13   14 1
  25   13   25 1
  26   15   16 ar
  27   15   20 ar
  28   16   17 ar
  29   16   34 1
  30   17   18 ar
  31   17   21 1
  32   18   19 ar
  33   18   35 1
  34   19   20 ar
  35   19   36 1
  36   20   37 1
  37   21   22 1
  38   21   23 1
  39   21   24 1
  40   25   38 1
  41   25   39 1
  42   25   40 1
  43   26   41 1
  44   26   42 1

#	End of record

