#	Name: ASD01910049
#	Creating user name:	WinNT
#	Creation time:	15. 06. 2019 19:55

#	Modifying user name:	WinNT
#	Modification time:	15. 06. 2019 19:55

#	Program:	/corina/corina34_cracker 3.40 0067  02.08.2006

@<TRIPOS>MOLECULE
ASD01910049
  47   50    0    0    0
SMALL
NO_CHARGES


@<TRIPOS>ATOM
   1 C1            -0.0167     1.3770     0.0096 C.ar    
   2 C2             0.0021    -0.0041     0.0020 C.ar    
   3 C3             1.2068    -0.6814    -0.0132 C.ar    
   4 C4             2.4015     0.0244    -0.0208 C.ar    
   5 C5             2.3867     1.4106    -0.0132 C.ar    
   6 C6             1.1763     2.0888     0.0020 C.ar    
   7 N7             1.1573     3.4894     0.0093 N.pl3   
   8 C8             0.2378     4.2809    -0.6098 C.2     
   9 C9             0.5729     5.5744    -0.3613 C.2     
  10 C10            1.7338     5.5731     0.4347 C.2     
  11 N11            2.0771     4.3220     0.6594 N.2     
  12 N12           -0.8502     3.8433    -1.3626 N.am    
  13 C13           -1.6863     4.7397    -1.9228 C.2     
  14 C14           -2.8403     4.2756    -2.7213 C.ar    
  15 C15           -3.7081     5.2014    -3.3029 C.ar    
  16 C16           -4.7833     4.7614    -4.0469 C.ar    
  17 C17           -5.0024     3.4059    -4.2172 C.ar    
  18 C18           -4.1460     2.4829    -3.6434 C.ar    
  19 C19           -3.0638     2.9095    -2.9018 C.ar    
  20 C20            2.4442     6.7743     0.9391 C.ar    
  21 C21            3.5885     6.6328     1.7216 C.ar    
  22 C22            4.2452     7.7534     2.1882 C.ar    
  23 C23            3.7693     9.0152     1.8808 C.ar    
  24 C24            2.6338     9.1616     1.1044 C.ar    
  25 C25            1.9727     8.0479     0.6273 C.ar    
  26 O26           -1.4913     5.9301    -1.7714 O.2     
  27 O27            3.5853    -0.6429    -0.0353 O.3     
  28 C28            3.5253    -2.0706    -0.0419 C.3     
  29 H29           -0.9594     1.9039     0.0169 H       
  30 H30           -0.9264    -0.5557     0.0083 H       
  31 H31            1.2183    -1.7613    -0.0187 H       
  32 H32            3.3156     1.9615    -0.0188 H       
  33 H33            0.0429     6.4476    -0.7121 H       
  34 H34           -1.0058     2.8935    -1.4834 H       
  35 H35           -3.5385     6.2597    -3.1704 H       
  36 H36           -5.4557     5.4766    -4.4971 H       
  37 H37           -5.8458     3.0667    -4.8003 H       
  38 H38           -4.3228     1.4263    -3.7799 H       
  39 H39           -2.3960     2.1881    -2.4545 H       
  40 H40            3.9605     5.6480     1.9629 H       
  41 H41            5.1322     7.6449     2.7948 H       
  42 H42            4.2859     9.8895     2.2485 H       
  43 H43            2.2664    10.1491     0.8676 H       
  44 H44            1.0866     8.1632     0.0209 H       
  45 H45            4.5367    -2.4768    -0.0535 H       
  46 H46            3.0050    -2.4165     0.8512 H       
  47 H47            2.9883    -2.4076    -0.9286 H       
@<TRIPOS>BOND
   1    1    2 ar
   2    1    6 ar
   3    1   29 1
   4    2    3 ar
   5    2   30 1
   6    3    4 ar
   7    3   31 1
   8    4    5 ar
   9    4   27 1
  10    5    6 ar
  11    5   32 1
  12    6    7 1
  13    7    8 1
  14    7   11 1
  15    8    9 2
  16    8   12 1
  17    9   10 1
  18    9   33 1
  19   10   11 2
  20   10   20 1
  21   12   13 am
  22   12   34 1
  23   13   14 1
  24   13   26 2
  25   14   15 ar
  26   14   19 ar
  27   15   16 ar
  28   15   35 1
  29   16   17 ar
  30   16   36 1
  31   17   18 ar
  32   17   37 1
  33   18   19 ar
  34   18   38 1
  35   19   39 1
  36   20   21 ar
  37   20   25 ar
  38   21   22 ar
  39   21   40 1
  40   22   23 ar
  41   22   41 1
  42   23   24 ar
  43   23   42 1
  44   24   25 ar
  45   24   43 1
  46   25   44 1
  47   27   28 1
  48   28   45 1
  49   28   46 1
  50   28   47 1

#	End of record

