#	Name: ASD02562014
#	Creating user name:	WinNT
#	Creation time:	15. 06. 2019 20:25

#	Modifying user name:	WinNT
#	Modification time:	15. 06. 2019 20:25

#	Program:	/corina/corina34_cracker 3.40 0067  02.08.2006

@<TRIPOS>MOLECULE
ASD02562014
  42   45    0    0    0
SMALL
NO_CHARGES


@<TRIPOS>ATOM
   1 C1            -1.1123     1.5055     0.6520 C.ar    
   2 C2            -1.0587     0.1386     0.8586 C.ar    
   3 C3            -1.2179    -0.7366    -0.2077 C.ar    
   4 C4            -1.4315    -0.2431    -1.4838 C.ar    
   5 C5            -1.4864     1.1355    -1.6944 C.ar    
   6 C6            -1.3301     2.0083    -0.6160 C.ar    
   7 Cl7           -0.9122     2.5918     1.9912 Cl      
   8 O8            -1.1634    -2.0783     0.0011 O.3     
   9 C9             0.0420    -2.6943    -0.1192 C.ar    
  10 C10            0.1279    -4.0773    -0.0284 C.ar    
  11 C11            1.3542    -4.7040    -0.1513 C.ar    
  12 C12            2.4964    -3.9561    -0.3640 C.ar    
  13 C13            2.4154    -2.5737    -0.4549 C.ar    
  14 C14            1.1865    -1.9430    -0.3383 C.ar    
  15 Cl15          -1.3051    -5.0198     0.2399 Cl      
  16 O16            3.5397    -1.8390    -0.6638 O.3     
  17 C17            4.7706    -2.5555    -0.7803 C.3     
  18 C18            5.8987    -1.5824    -1.0073 C.2     
  19 N19            7.1597    -1.8984    -1.1579 N.2     
  20 N20            7.8993    -0.7244    -1.3470 N.pl3   
  21 C21            7.0299     0.3268    -1.3049 C.2     
  22 C22            5.7708    -0.1967    -1.0976 C.2     
  23 C23            7.3713     1.7520    -1.4576 C.2     
  24 C24            8.6134     2.2383    -1.6655 C.2     
  25 C25            8.6829     3.6110    -1.7775 C.2     
  26 C26            7.5139     4.2486    -1.6635 C.2     
  27 S27            6.2228     3.0830    -1.4049 S.3     
  28 C28           -1.7069     1.6530    -3.0114 C.1     
  29 N29           -1.8819     2.0634    -4.0560 N.1     
  30 H30           -0.8922    -0.2492     1.8527 H       
  31 H31           -1.5550    -0.9231    -2.3137 H       
  32 H32           -1.3718     3.0758    -0.7742 H       
  33 H33            1.4194    -5.7797    -0.0805 H       
  34 H34            3.4532    -4.4478    -0.4593 H       
  35 H35            1.1219    -0.8672    -0.4092 H       
  36 H36            4.9530    -3.1158     0.1368 H       
  37 H37            4.7111    -3.2456    -1.6219 H       
  38 H38            8.8581    -0.6683    -1.4830 H       
  39 H39            4.8525     0.3655    -1.0140 H       
  40 H40            9.4837     1.6027    -1.7380 H       
  41 H41            9.6137     4.1326    -1.9447 H       
  42 H42            7.3816     5.3188    -1.7245 H       
@<TRIPOS>BOND
   1    1    2 ar
   2    1    7 1
   3    1    6 ar
   4    2    3 ar
   5    2   30 1
   6    3    4 ar
   7    3    8 1
   8    4    5 ar
   9    4   31 1
  10    5    6 ar
  11    5   28 1
  12    6   32 1
  13    8    9 1
  14    9   10 ar
  15    9   14 ar
  16   10   11 ar
  17   10   15 1
  18   11   12 ar
  19   11   33 1
  20   12   13 ar
  21   12   34 1
  22   13   14 ar
  23   13   16 1
  24   14   35 1
  25   16   17 1
  26   17   18 1
  27   17   36 1
  28   17   37 1
  29   18   19 2
  30   18   22 1
  31   19   20 1
  32   20   21 1
  33   20   38 1
  34   21   22 2
  35   21   23 1
  36   22   39 1
  37   23   24 2
  38   23   27 1
  39   24   25 1
  40   24   40 1
  41   25   26 2
  42   25   41 1
  43   26   27 1
  44   26   42 1
  45   28   29 3

#	End of record

