#	Name: ASD01916808
#	Creating user name:	WinNT
#	Creation time:	15. 06. 2019 20:08

#	Modifying user name:	WinNT
#	Modification time:	15. 06. 2019 20:08

#	Program:	/corina/corina34_cracker 3.40 0067  02.08.2006

@<TRIPOS>MOLECULE
ASD01916808
  63   66    0    0    0
SMALL
NO_CHARGES


@<TRIPOS>ATOM
   1 C1            -0.0167     1.3810     0.0096 C.ar    
   2 C2             0.0021    -0.0041     0.0020 C.ar    
   3 C3             1.2091    -0.6845    -0.0127 C.ar    
   4 C4             2.3978     0.0155    -0.0199 C.ar    
   5 C5             2.3835     1.4091    -0.0128 C.ar    
   6 C6             1.1677     2.0892     0.0021 C.ar    
   7 C7             3.6597     2.1663    -0.0200 C.2     
   8 N8             3.7758     3.5011    -0.0142 N.2     
   9 N9             4.8641     1.6385    -0.0273 N.2     
  10 N10            5.7738     2.7084    -0.0322 N.pl3   
  11 C11            5.0392     3.8351    -0.0234 C.2     
  12 C12            5.5803     5.2416    -0.0251 C.3     
  13 C13            7.2359     2.6155    -0.0408 C.3     
  14 C14            7.7288     2.5848    -1.4646 C.2     
  15 O15            6.9369     2.6356    -2.3818 O.2     
  16 N16            9.0498     2.5010    -1.7187 N.am    
  17 C17            9.5522     2.4698    -3.1007 C.3     
  18 C18           10.6443     3.5349    -3.2458 C.3     
  19 N19           11.6647     3.3297    -2.2091 N.3     
  20 C20           11.1006     3.5047    -0.8641 C.3     
  21 C21           10.0275     2.4445    -0.6214 C.3     
  22 C22           12.7474     4.1692    -2.4059 C.ar    
  23 N23           13.7665     4.1192    -1.5606 N.ar    
  24 N24           12.7426     4.9997    -3.4381 N.ar    
  25 C25           14.8167     4.9074    -1.7203 C.ar    
  26 C26           14.8421     5.7921    -2.7869 C.ar    
  27 C27           13.7617     5.8147    -3.6549 C.ar    
  28 C28            5.7509     5.7207    -1.4681 C.3     
  29 F29           -1.1597    -0.6935     0.0095 F       
  30 C30            6.3003     7.1487    -1.4698 C.3     
  31 C31            1.2233    -2.1914    -0.0205 C.3     
  32 C32            7.7088     7.1539    -0.8724 C.3     
  33 C33            6.3537     7.6728    -2.9063 C.3     
  34 H34           -0.9597     1.9075     0.0170 H       
  35 H35            3.3381    -0.5156    -0.0307 H       
  36 H36            1.1522     3.1691     0.0074 H       
  37 H37            4.8846     5.8992     0.4961 H       
  38 H38            6.5458     5.2601     0.4804 H       
  39 H39            7.6579     3.4802     0.4713 H       
  40 H40            7.5450     1.7038     0.4704 H       
  41 H41            9.9691     1.4861    -3.3165 H       
  42 H42            8.7370     2.6848    -3.7916 H       
  43 H43           11.1045     3.4522    -4.2304 H       
  44 H44           10.2039     4.5254    -3.1316 H       
  45 H45           11.8916     3.4002    -0.1214 H       
  46 H46           10.6538     4.4956    -0.7831 H       
  47 H47            9.5274     2.6402     0.3272 H       
  48 H48           10.4873     1.4565    -0.5991 H       
  49 H49           15.6442     4.8623    -1.0278 H       
  50 H50           15.6871     6.4469    -2.9407 H       
  51 H51           13.7504     6.4921    -4.4960 H       
  52 H52            6.4466     5.0631    -1.9894 H       
  53 H53            4.7854     5.7022    -1.9737 H       
  54 H54            5.6502     7.7888    -0.8734 H       
  55 H55            1.2171    -2.5496    -1.0499 H       
  56 H56            2.1214    -2.5489     0.4831 H       
  57 H57            0.3416    -2.5658     0.4998 H       
  58 H58            8.3589     6.5138    -1.4688 H       
  59 H59            8.1002     8.1713    -0.8736 H       
  60 H60            7.6708     6.7805     0.1510 H       
  61 H61            5.3502     7.6691    -3.3319 H       
  62 H62            6.7450     8.6902    -2.9075 H       
  63 H63            7.0037     7.0327    -3.5027 H       
@<TRIPOS>BOND
   1    1    2 ar
   2    1    6 ar
   3    1   34 1
   4    2    3 ar
   5    2   29 1
   6    3    4 ar
   7    3   31 1
   8    4    5 ar
   9    4   35 1
  10    5    6 ar
  11    5    7 1
  12    6   36 1
  13    7    8 1
  14    7    9 2
  15    8   11 2
  16    9   10 1
  17   10   11 1
  18   10   13 1
  19   11   12 1
  20   12   28 1
  21   12   37 1
  22   12   38 1
  23   13   14 1
  24   13   39 1
  25   13   40 1
  26   14   15 2
  27   14   16 am
  28   16   17 1
  29   16   21 1
  30   17   18 1
  31   17   41 1
  32   17   42 1
  33   18   19 1
  34   18   43 1
  35   18   44 1
  36   19   20 1
  37   19   22 1
  38   20   21 1
  39   20   45 1
  40   20   46 1
  41   21   47 1
  42   21   48 1
  43   22   23 ar
  44   22   24 ar
  45   23   25 ar
  46   24   27 ar
  47   25   26 ar
  48   25   49 1
  49   26   27 ar
  50   26   50 1
  51   27   51 1
  52   28   30 1
  53   28   52 1
  54   28   53 1
  55   30   32 1
  56   30   33 1
  57   30   54 1
  58   31   55 1
  59   31   56 1
  60   31   57 1
  61   32   58 1
  62   32   59 1
  63   32   60 1
  64   33   61 1
  65   33   62 1
  66   33   63 1

#	End of record

