#	Name: ASD09610070
#	Creating user name:	WinNT
#	Creation time:	15. 06. 2019 21:22

#	Modifying user name:	WinNT
#	Modification time:	15. 06. 2019 21:22

#	Program:	/corina/corina34_cracker 3.40 0067  02.08.2006

@<TRIPOS>MOLECULE
ASD09610070
  39   41    0    0    0
SMALL
NO_CHARGES


@<TRIPOS>ATOM
   1 N1            -0.0195     1.4453    -0.1972 N.pl3   
   2 N2            -0.0095     0.2308    -0.8922 N.2     
   3 C3             1.2274    -0.1162    -1.1187 C.2     
   4 C4             2.0680     0.8777    -0.5691 C.2     
   5 C5             1.2505     1.8353    -0.0028 C.2     
   6 C6             3.5418     0.8898    -0.5955 C.2     
   7 O7             4.1479    -0.0194    -1.1293 O.2     
   8 N8             4.2176     1.9085    -0.0280 N.am    
   9 C9            -1.2144     2.1720     0.2392 C.3     
  10 C10            1.6804    -1.3598    -1.8394 C.3     
  11 F11            0.7186    -1.7261    -2.7870 F       
  12 F12            2.8971    -1.1087    -2.4829 F       
  13 C13            6.3597     3.0419    -0.0596 C.ar    
  14 C14            5.6115     1.8639     0.0510 C.ar    
  15 C15            6.2599     0.6524     0.2397 C.ar    
  16 C16            7.6388     0.6104     0.3179 C.ar    
  17 C17            8.3804     1.7736     0.2094 C.ar    
  18 C18            7.7487     2.9867     0.0218 C.ar    
  19 C19            5.6766     4.3417    -0.2676 C.ar    
  20 C20            5.9889     5.4331     0.5412 C.ar    
  21 C21            5.3505     6.6403     0.3436 C.ar    
  22 C22            4.4008     6.7684    -0.6556 C.ar    
  23 C23            4.0870     5.6874    -1.4616 C.ar    
  24 C24            4.7243     4.4776    -1.2762 C.ar    
  25 Cl25           3.6003     8.2896    -0.8983 Cl      
  26 H26            1.5732     2.7332     0.5032 H       
  27 H27            3.7360     2.6727     0.3257 H       
  28 H28           -1.4950     1.8423     1.2395 H       
  29 H29           -1.0038     3.2414     0.2549 H       
  30 H30           -2.0333     1.9730    -0.4521 H       
  31 H31            1.8096    -2.1694    -1.1211 H       
  32 H32            5.6865    -0.2588     0.3258 H       
  33 H33            8.1402    -0.3348     0.4649 H       
  34 H34            9.4578     1.7323     0.2720 H       
  35 H35            8.3314     3.8921    -0.0624 H       
  36 H36            6.7291     5.3339     1.3214 H       
  37 H37            5.5917     7.4865     0.9697 H       
  38 H38            3.3452     5.7923    -2.2395 H       
  39 H39            4.4820     3.6361    -1.9084 H       
@<TRIPOS>BOND
   1    1    2 1
   2    1    5 1
   3    1    9 1
   4    2    3 2
   5    3    4 1
   6    3   10 1
   7    4    5 2
   8    4    6 1
   9    5   26 1
  10    6    7 2
  11    6    8 am
  12    8   14 1
  13    8   27 1
  14    9   28 1
  15    9   29 1
  16    9   30 1
  17   10   11 1
  18   10   12 1
  19   10   31 1
  20   13   14 ar
  21   13   18 ar
  22   13   19 1
  23   14   15 ar
  24   15   16 ar
  25   15   32 1
  26   16   17 ar
  27   16   33 1
  28   17   18 ar
  29   17   34 1
  30   18   35 1
  31   19   20 ar
  32   19   24 ar
  33   20   21 ar
  34   20   36 1
  35   21   22 ar
  36   21   37 1
  37   22   23 ar
  38   22   25 1
  39   23   24 ar
  40   23   38 1
  41   24   39 1

#	End of record

