#	Name: ASD01918022
#	Creating user name:	WinNT
#	Creation time:	15. 06. 2019 20:10

#	Modifying user name:	WinNT
#	Modification time:	15. 06. 2019 20:10

#	Program:	/corina/corina34_cracker 3.40 0067  02.08.2006

@<TRIPOS>MOLECULE
ASD01918022
  45   48    0    0    0
SMALL
NO_CHARGES


@<TRIPOS>ATOM
   1 N1             4.8237    -0.4044    -2.1416 N.ar    
   2 C2             5.2895     0.2916    -3.1594 C.ar    
   3 C3             5.1748     1.6745    -3.1868 C.ar    
   4 C4             4.5595     2.3233    -2.1227 C.ar    
   5 C5             4.0813     1.5534    -1.0679 C.ar    
   6 C6             4.2342     0.1750    -1.1146 C.ar    
   7 O7             3.4725     2.1431    -0.0057 O.3     
   8 C8             3.4500     3.5022     0.0439 C.2     
   9 N9             2.1949     5.5135    -0.0211 N.pl3   
  10 C10            2.2665     4.1538    -0.0651 C.2     
  11 C11            4.6508     4.2060     0.2127 C.2     
  12 C12            4.6245     5.5938     0.2634 C.2     
  13 C13            3.3312     6.2681     0.1371 C.2     
  14 C14            5.8650     6.3666     0.4401 C.2     
  15 N15            5.8194     7.7128     0.4869 N.am    
  16 C16            6.9775     8.4409     0.7596 C.ar    
  17 O17            6.9311     5.7902     0.5438 O.2     
  18 C18            1.1685     6.4047    -0.1037 C.2     
  19 N19            1.6809     7.6036    -0.0057 N.2     
  20 N20            2.9575     7.5322     0.1421 N.2     
  21 O21            5.6581     2.3848    -4.2399 O.3     
  22 N22            8.1370     7.8113     0.8640 N.ar    
  23 C23            6.9021     9.8203     0.9132 C.ar    
  24 C24            8.0571    10.5326     1.1835 C.ar    
  25 C25            9.2567     9.8348     1.2917 C.ar    
  26 C26            9.2568     8.4595     1.1208 C.ar    
  27 C27            6.2770     1.6435    -5.2932 C.3     
  28 O28           10.4156    10.4953     1.5559 O.3     
  29 C29           11.6041     9.7076     1.6516 C.3     
  30 H30            5.7665    -0.2204    -3.9820 H       
  31 H31            4.4556     3.3983    -2.1151 H       
  32 H32            3.8658    -0.4305    -0.2997 H       
  33 H33            1.3590     3.5817    -0.1902 H       
  34 H34            5.5867     3.6745     0.3028 H       
  35 H35            4.9812     8.1754     0.3309 H       
  36 H36            0.1232     6.1652    -0.2320 H       
  37 H37            5.9541    10.3296     0.8223 H       
  38 H38            8.0286    11.6051     1.3074 H       
  39 H39           10.1845     7.9121     1.1989 H       
  40 H40            7.1289     1.0911    -4.8968 H       
  41 H41            5.5563     0.9444    -5.7175 H       
  42 H42            6.6177     2.3295    -6.0687 H       
  43 H43           11.4931     8.9784     2.4541 H       
  44 H44           11.7720     9.1874     0.7086 H       
  45 H45           12.4537    10.3563     1.8650 H       
@<TRIPOS>BOND
   1    1    2 ar
   2    1    6 ar
   3    2    3 ar
   4    2   30 1
   5    3    4 ar
   6    3   21 1
   7    4    5 ar
   8    4   31 1
   9    5    6 ar
  10    5    7 1
  11    6   32 1
  12    7    8 1
  13    8   11 1
  14    8   10 2
  15    9   10 1
  16    9   18 1
  17    9   13 1
  18   10   33 1
  19   11   12 2
  20   11   34 1
  21   12   13 1
  22   12   14 1
  23   13   20 2
  24   14   15 am
  25   14   17 2
  26   15   16 1
  27   15   35 1
  28   16   23 ar
  29   16   22 ar
  30   18   19 2
  31   18   36 1
  32   19   20 1
  33   21   27 1
  34   22   26 ar
  35   23   24 ar
  36   23   37 1
  37   24   25 ar
  38   24   38 1
  39   25   26 ar
  40   25   28 1
  41   26   39 1
  42   27   40 1
  43   27   41 1
  44   27   42 1
  45   28   29 1
  46   29   43 1
  47   29   44 1
  48   29   45 1

#	End of record

