#	Name: ASD01816466
#	Creating user name:	WinNT
#	Creation time:	15. 06. 2019 19:35

#	Modifying user name:	WinNT
#	Modification time:	15. 06. 2019 19:35

#	Program:	/corina/corina34_cracker 3.40 0067  02.08.2006

@<TRIPOS>MOLECULE
ASD01816466
  50   55    0    0    0
SMALL
NO_CHARGES


@<TRIPOS>ATOM
   1 C1             0.1060     1.4780     0.3833 C.ar    
   2 C2             0.0860     0.0927     0.3748 C.ar    
   3 C3             1.2567    -0.6267     0.2350 C.ar    
   4 C4             2.4721     0.0396     0.1014 C.ar    
   5 C5             2.4869     1.4438     0.1107 C.ar    
   6 C6             1.3002     2.1563     0.2518 C.ar    
   7 N7             3.6503    -0.6749    -0.0382 N.pl3   
   8 C8             4.8501    -0.0874    -0.1702 C.2     
   9 C9             4.9883     1.2786    -0.1757 C.2     
  10 C10            3.7853     2.1298    -0.0322 C.2     
  11 C11            6.1033     2.2126    -0.2966 C.2     
  12 N12            5.5668     3.4501    -0.2270 N.am    
  13 N13            4.1809     3.3698    -0.0691 N.2     
  14 C14            6.2942     4.6410    -0.3014 C.ar    
  15 O15            7.2829     1.9319    -0.4328 O.2     
  16 C16            3.5842    -2.1384    -0.0416 C.3     
  17 C17            3.4391    -2.6314    -1.4583 C.ar    
  18 C18            4.5591    -2.7785    -2.2559 C.ar    
  19 C19            4.4292    -3.2297    -3.5548 C.ar    
  20 C20            3.1725    -3.5361    -4.0593 C.ar    
  21 C21            2.0499    -3.3878    -3.2559 C.ar    
  22 C22            2.1868    -2.9411    -1.9561 C.ar    
  23 N23            3.0374    -3.9938    -5.3774 N.pl3   
  24 C24            1.8783    -4.3258    -5.9897 C.2     
  25 C25            2.1760    -4.7172    -7.2504 C.2     
  26 C26            3.5623    -4.6216    -7.4151 C.2     
  27 N27            4.0785    -4.1826    -6.2954 N.2     
  28 C28            6.6200     5.2040    -1.5344 C.ar    
  29 C29            7.3388     6.3807    -1.5670 C.ar    
  30 N30            7.7184     6.9745    -0.4509 N.ar    
  31 C31            7.4306     6.4749     0.7381 C.ar    
  32 C32            6.7078     5.2998     0.8561 C.ar    
  33 F33            6.4164     4.7936     2.0743 F       
  34 F34            1.2227    -1.9773     0.2283 F       
  35 F35            7.8418     7.1206     1.8512 F       
  36 H36           -0.8170     2.0289     0.4889 H       
  37 H37           -0.8537    -0.4294     0.4787 H       
  38 H38            1.3139     3.2362     0.2590 H       
  39 H39            5.7296    -0.7054    -0.2743 H       
  40 H40            4.4979    -2.5443     0.3925 H       
  41 H41            2.7264    -2.4647     0.5464 H       
  42 H42            5.5363    -2.5400    -1.8628 H       
  43 H43            5.3042    -3.3437    -4.1775 H       
  44 H44            1.0711    -3.6250    -3.6458 H       
  45 H45            1.3139    -2.8256    -1.3307 H       
  46 H46            0.8922    -4.2864    -5.5511 H       
  47 H47            1.4686    -5.0453    -7.9976 H       
  48 H48            4.1112    -4.8640    -8.3130 H       
  49 H49            6.3138     4.7246    -2.4525 H       
  50 H50            7.5950     6.8221    -2.5188 H       
@<TRIPOS>BOND
   1    1    2 ar
   2    1    6 ar
   3    1   36 1
   4    2    3 ar
   5    2   37 1
   6    3    4 ar
   7    3   34 1
   8    4    5 ar
   9    4    7 1
  10    5    6 ar
  11    5   10 1
  12    6   38 1
  13    7    8 1
  14    7   16 1
  15    8    9 2
  16    8   39 1
  17    9   10 1
  18    9   11 1
  19   10   13 2
  20   11   12 am
  21   11   15 2
  22   12   13 1
  23   12   14 1
  24   14   28 ar
  25   14   32 ar
  26   16   17 1
  27   16   40 1
  28   16   41 1
  29   17   18 ar
  30   17   22 ar
  31   18   19 ar
  32   18   42 1
  33   19   20 ar
  34   19   43 1
  35   20   21 ar
  36   20   23 1
  37   21   22 ar
  38   21   44 1
  39   22   45 1
  40   23   24 1
  41   23   27 1
  42   24   25 2
  43   24   46 1
  44   25   26 1
  45   25   47 1
  46   26   27 2
  47   26   48 1
  48   28   29 ar
  49   28   49 1
  50   29   30 ar
  51   29   50 1
  52   30   31 ar
  53   31   32 ar
  54   31   35 1
  55   32   33 1

#	End of record

