#	Name: ASD03320179
#	Creating user name:	WinNT
#	Creation time:	15. 06. 2019 20:36

#	Modifying user name:	WinNT
#	Modification time:	15. 06. 2019 20:36

#	Program:	/corina/corina34_cracker 3.40 0067  02.08.2006

@<TRIPOS>MOLECULE
ASD03320179
  46   48    0    0    0
SMALL
NO_CHARGES


@<TRIPOS>ATOM
   1 C1            -0.0078     1.3456    -0.1946 C.ar    
   2 C2             0.0216    -0.0348     0.0280 C.ar    
   3 C3            -1.1499    -0.7598     0.0450 C.ar    
   4 C4            -2.3674    -0.1258    -0.1585 C.ar    
   5 C5            -2.4089     1.2592    -0.3829 C.ar    
   6 C6            -1.2264     1.9933    -0.3944 C.ar    
   7 C7             1.2502     2.1176    -0.2118 C.2     
   8 O8             1.2244     3.3178    -0.4054 O.2     
   9 N9             2.4274     1.4922    -0.0131 N.am    
  10 C10            3.6272     2.2056    -0.1264 C.ar    
  11 C11           -3.7031     1.9359    -0.6002 C.2     
  12 C12            3.6895     3.5300     0.2864 C.ar    
  13 C13            4.8728     4.2328     0.1743 C.ar    
  14 C14            5.9990     3.6163    -0.3510 C.ar    
  15 C15            5.9375     2.2933    -0.7637 C.ar    
  16 C16            4.7566     1.5873    -0.6464 C.ar    
  17 O17            7.1637     4.3092    -0.4619 O.3     
  18 C18            8.2835     3.6122    -1.0116 C.3     
  19 F19            7.9760     3.1840    -2.3074 F       
  20 F20            9.3902     4.4669    -1.0532 F       
  21 F21            8.5806     2.5032    -0.2122 F       
  22 O22           -3.5173    -0.8445    -0.1412 O.3     
  23 S23           -4.9368     1.4179    -1.7409 S.3     
  24 C24           -5.9785     2.7565    -1.2770 C.2     
  25 C25           -5.3596     3.5080    -0.3098 C.2     
  26 C26           -4.1256     3.0568     0.0596 C.2     
  27 C27           -3.4007    -2.2494     0.0922 C.3     
  28 C28           -7.2542     3.0181    -1.8169 C.2     
  29 O29           -7.8949     3.9735    -1.4261 O.2     
  30 C30           -7.8231     2.1128    -2.8788 C.3     
  31 H31            0.9659    -0.5343     0.1868 H       
  32 H32           -1.1206    -1.8256     0.2171 H       
  33 H33           -1.2519     3.0592    -0.5665 H       
  34 H34            2.4437     0.5480     0.2084 H       
  35 H35            2.8126     4.0103     0.6947 H       
  36 H36            4.9215     5.2628     0.4953 H       
  37 H37            6.8146     1.8140    -1.1729 H       
  38 H38            4.7088     0.5573    -0.9677 H       
  39 H39           -5.8145     4.3847     0.1270 H       
  40 H40           -3.5277     3.5488     0.8125 H       
  41 H41           -2.7869    -2.6978    -0.6890 H       
  42 H42           -2.9346    -2.4191     1.0628 H       
  43 H43           -4.3917    -2.7031     0.0808 H       
  44 H44           -8.3885     1.3094    -2.4066 H       
  45 H45           -8.4822     2.6865    -3.5305 H       
  46 H46           -7.0103     1.6876    -3.4675 H       
@<TRIPOS>BOND
   1    1    2 ar
   2    1    7 1
   3    1    6 ar
   4    2    3 ar
   5    2   31 1
   6    3    4 ar
   7    3   32 1
   8    4    5 ar
   9    4   22 1
  10    5    6 ar
  11    5   11 1
  12    6   33 1
  13    7    8 2
  14    7    9 am
  15    9   10 1
  16    9   34 1
  17   10   12 ar
  18   10   16 ar
  19   11   23 1
  20   11   26 2
  21   12   13 ar
  22   12   35 1
  23   13   14 ar
  24   13   36 1
  25   14   15 ar
  26   14   17 1
  27   15   16 ar
  28   15   37 1
  29   16   38 1
  30   17   18 1
  31   18   19 1
  32   18   20 1
  33   18   21 1
  34   22   27 1
  35   23   24 1
  36   24   25 2
  37   24   28 1
  38   25   26 1
  39   25   39 1
  40   26   40 1
  41   27   41 1
  42   27   42 1
  43   27   43 1
  44   28   29 2
  45   28   30 1
  46   30   44 1
  47   30   45 1
  48   30   46 1

#	End of record

