#	Name: ASD03731596
#	Creating user name:	WinNT
#	Creation time:	15. 06. 2019 20:46

#	Modifying user name:	WinNT
#	Modification time:	15. 06. 2019 20:46

#	Program:	/corina/corina34_cracker 3.40 0067  02.08.2006

@<TRIPOS>MOLECULE
ASD03731596
  43   45    0    0    0
SMALL
NO_CHARGES


@<TRIPOS>ATOM
   1 C1            -0.4037     1.1044    -1.9603 C.2     
   2 C2            -0.2821    -0.2736    -1.4500 C.ar    
   3 C3             0.9017    -0.9938    -1.6484 C.ar    
   4 C4             1.0106    -2.2837    -1.1688 C.ar    
   5 C5            -0.0518    -2.8662    -0.4909 C.ar    
   6 C6            -1.2312    -2.1530    -0.2914 C.ar    
   7 C7            -1.3469    -0.8629    -0.7616 C.ar    
   8 O8             0.5253     1.6169    -2.5545 O.2     
   9 N9            -1.5464     1.7941    -1.7730 N.am    
  10 S10           -1.6829     3.3417    -2.3461 S.o2    
  11 O11           -2.9976     3.7743    -2.0241 O.2     
  12 O12           -0.5132     4.0301    -1.9251 O.2     
  13 C13           -1.6040     3.2558    -4.1042 C.ar    
  14 C14           -2.7629     3.0996    -4.8413 C.ar    
  15 C15           -2.7010     3.0321    -6.2206 C.ar    
  16 C16           -1.4802     3.1213    -6.8628 C.ar    
  17 C17           -0.3213     3.2784    -6.1258 C.ar    
  18 C18           -0.3837     3.3502    -4.7467 C.ar    
  19 F19           -2.2618    -2.7252     0.3686 F       
  20 F20            1.9357    -0.4278    -2.3084 F       
  21 O21            0.0593    -4.1350    -0.0213 O.3     
  22 C22            1.2618    -4.7566    -0.1412 C.ar    
  23 C23            2.2134    -4.6280     0.8607 C.ar    
  24 C24            3.4349    -5.2605     0.7370 C.ar    
  25 C25            3.7104    -6.0218    -0.3854 C.ar    
  26 C26            2.7631    -6.1514    -1.3854 C.ar    
  27 C27            1.5377    -5.5253    -1.2626 C.ar    
  28 C28            4.4686    -5.1211     1.8247 C.3     
  29 F29            3.9637    -4.3103     2.8468 F       
  30 F30            4.7760    -6.3847     2.3406 F       
  31 F31            5.6259    -4.5391     1.2963 F       
  32 Cl32           5.2470    -6.8150    -0.5391 Cl      
  33 H33            1.9232    -2.8406    -1.3215 H       
  34 H34           -2.2603    -0.3091    -0.6020 H       
  35 H35           -2.2889     1.3838    -1.3025 H       
  36 H36           -3.7168     3.0299    -4.3395 H       
  37 H37           -3.6064     2.9093    -6.7964 H       
  38 H38           -1.4318     3.0678    -7.9404 H       
  39 H39            0.6325     3.3477    -6.6276 H       
  40 H40            0.5213     3.4767    -4.1711 H       
  41 H41            1.9991    -4.0333     1.7364 H       
  42 H42            2.9800    -6.7459    -2.2605 H       
  43 H43            0.7966    -5.6306    -2.0412 H       
@<TRIPOS>BOND
   1    1    2 1
   2    1    8 2
   3    1    9 am
   4    2    3 ar
   5    2    7 ar
   6    3    4 ar
   7    3   20 1
   8    4    5 ar
   9    4   33 1
  10    5    6 ar
  11    5   21 1
  12    6    7 ar
  13    6   19 1
  14    7   34 1
  15    9   10 am
  16    9   35 1
  17   10   11 2
  18   10   12 2
  19   10   13 1
  20   13   14 ar
  21   13   18 ar
  22   14   15 ar
  23   14   36 1
  24   15   16 ar
  25   15   37 1
  26   16   17 ar
  27   16   38 1
  28   17   18 ar
  29   17   39 1
  30   18   40 1
  31   21   22 1
  32   22   23 ar
  33   22   27 ar
  34   23   24 ar
  35   23   41 1
  36   24   25 ar
  37   24   28 1
  38   25   26 ar
  39   25   32 1
  40   26   27 ar
  41   26   42 1
  42   27   43 1
  43   28   29 1
  44   28   30 1
  45   28   31 1

#	End of record

