#	Name: ASD03330434
#	Creating user name:	WinNT
#	Creation time:	15. 06. 2019 20:37

#	Modifying user name:	WinNT
#	Modification time:	15. 06. 2019 20:37

#	Program:	/corina/corina34_cracker 3.40 0067  02.08.2006

@<TRIPOS>MOLECULE
ASD03330434
  63   68    0    0    0
SMALL
NO_CHARGES


@<TRIPOS>ATOM
   1 C1             0.0845     1.8173     0.0712 C.3     
   2 N2            -0.0386     0.3548     0.1468 N.3     
   3 C3             0.3264    -0.2778    -1.1337 C.3     
   4 C4             1.6560     0.2834    -1.5672 C.2     
   5 N5             2.2084     1.4135    -1.0377 N.pl3   
   6 C6             1.5656     2.2124     0.0094 C.3     
   7 C7             2.5182    -0.1828    -2.5040 C.2     
   8 N8             3.5807     0.6544    -2.5378 N.2     
   9 C9             3.4003     1.6147    -1.6583 C.2     
  10 C10            4.3372     2.7269    -1.3895 C.ar    
  11 C11            2.3317    -1.3849    -3.3356 C.2     
  12 O12            1.3896    -2.1261    -3.1304 O.2     
  13 C13            3.1116    -2.9232    -5.0730 C.3     
  14 N14            3.2052    -1.6628    -4.3237 N.am    
  15 C15           -1.3916    -0.0389     0.5617 C.3     
  16 C16            4.5787     3.1381    -0.0781 C.ar    
  17 C17            5.4537     4.1755     0.1668 C.ar    
  18 C18            6.0933     4.8103    -0.8853 C.ar    
  19 C19            5.8590     4.4089    -2.1887 C.ar    
  20 C20            4.9886     3.3666    -2.4473 C.ar    
  21 F21            4.7600     2.9749    -3.7198 F       
  22 Cl22           7.1931     6.1153    -0.5673 Cl      
  23 C23            4.4714    -3.6270    -5.0260 C.3     
  24 C24            5.5535    -2.6719    -5.5352 C.3     
  25 C25            5.6158    -1.4396    -4.6298 C.3     
  26 C26            4.2689    -0.7111    -4.6723 C.3     
  27 N27            6.8506    -3.3528    -5.5228 N.am    
  28 C28            7.4228    -3.8541    -4.4152 C.2     
  29 C29            8.7419    -4.4678    -4.8339 C.3     
  30 C30            8.8020    -4.2274    -6.3248 C.ar    
  31 C31            7.6309    -3.5603    -6.6607 C.ar    
  32 C32            9.7359    -4.5405    -7.2868 C.ar    
  33 C33            9.5144    -4.1842    -8.6056 C.ar    
  34 C34            8.3549    -3.5145    -8.9518 C.ar    
  35 C35            7.4143    -3.2060    -7.9911 C.ar    
  36 O36            6.9680    -3.8211    -3.2913 O.2     
  37 H37           -0.4243     2.1779    -0.8227 H       
  38 H38           -0.3735     2.2654     0.9531 H       
  39 H39            0.4071    -1.3568    -1.0020 H       
  40 H40           -0.4310    -0.0532    -1.8848 H       
  41 H41            1.6539     3.2721    -0.2301 H       
  42 H42            2.0405     2.0108     0.9695 H       
  43 H43            2.3536    -3.5622    -4.6199 H       
  44 H44            2.8442    -2.7136    -6.1087 H       
  45 H45           -2.1218     0.3949    -0.1215 H       
  46 H46           -1.4760    -1.1254     0.5418 H       
  47 H47           -1.5810     0.3217     1.5727 H       
  48 H48            4.0810     2.6450     0.7437 H       
  49 H49            5.6405     4.4942     1.1817 H       
  50 H50            6.3600     4.9081    -3.0050 H       
  51 H51            4.6958    -3.9168    -3.9995 H       
  52 H52            4.4435    -4.5150    -5.6575 H       
  53 H53            5.3154    -2.3630    -6.5530 H       
  54 H54            5.8293    -1.7501    -3.6070 H       
  55 H55            6.4023    -0.7708    -4.9792 H       
  56 H56            4.0959    -0.3210    -5.6753 H       
  57 H57            4.2745     0.1095    -3.9548 H       
  58 H58            9.5714    -3.9688    -4.3328 H       
  59 H59            8.7514    -5.5363    -4.6186 H       
  60 H60           10.6403    -5.0633    -7.0125 H       
  61 H61           10.2453    -4.4281    -9.3624 H       
  62 H62            8.1824    -3.2362    -9.9809 H       
  63 H63            6.5112    -2.6832    -8.2693 H       
@<TRIPOS>BOND
   1    1    2 1
   2    1    6 1
   3    1   37 1
   4    1   38 1
   5    2    3 1
   6    2   15 1
   7    3    4 1
   8    3   39 1
   9    3   40 1
  10    4    5 1
  11    4    7 2
  12    5    6 1
  13    5    9 1
  14    6   41 1
  15    6   42 1
  16    7    8 1
  17    7   11 1
  18    8    9 2
  19    9   10 1
  20   10   16 ar
  21   10   20 ar
  22   11   12 2
  23   11   14 am
  24   13   14 1
  25   13   23 1
  26   13   43 1
  27   13   44 1
  28   14   26 1
  29   15   45 1
  30   15   46 1
  31   15   47 1
  32   16   17 ar
  33   16   48 1
  34   17   18 ar
  35   17   49 1
  36   18   19 ar
  37   18   22 1
  38   19   20 ar
  39   19   50 1
  40   20   21 1
  41   23   24 1
  42   23   51 1
  43   23   52 1
  44   24   25 1
  45   24   27 1
  46   24   53 1
  47   25   26 1
  48   25   54 1
  49   25   55 1
  50   26   56 1
  51   26   57 1
  52   27   28 am
  53   27   31 1
  54   28   29 1
  55   28   36 2
  56   29   30 1
  57   29   58 1
  58   29   59 1
  59   30   31 ar
  60   30   32 ar
  61   31   35 ar
  62   32   33 ar
  63   32   60 1
  64   33   34 ar
  65   33   61 1
  66   34   35 ar
  67   34   62 1
  68   35   63 1

#	End of record

