#	Name: ASD06170273
#	Creating user name:	WinNT
#	Creation time:	15. 06. 2019 21:05

#	Modifying user name:	WinNT
#	Modification time:	15. 06. 2019 21:05

#	Program:	/corina/corina34_cracker 3.40 0067  02.08.2006

@<TRIPOS>MOLECULE
ASD06170273
  67   71    0    0    0
SMALL
NO_CHARGES


@<TRIPOS>ATOM
   1 N1             0.7360     4.4552    -5.3552 N.am    
   2 N2             1.5941     5.1024    -6.2493 N.pl3   
   3 C3             2.8681     4.9845    -5.8293 C.2     
   4 C4             2.8769     4.2597    -4.6536 C.2     
   5 C5             1.4750     3.9227    -4.3598 C.2     
   6 C6             4.0534     3.8968    -3.8544 C.2     
   7 O7             5.1635     4.2421    -4.2142 O.2     
   8 N8             3.9043     3.1813    -2.7220 N.am    
   9 C9             1.1702     5.8040    -7.4635 C.3     
  10 C10            4.0802     5.5480    -6.5252 C.3     
  11 C11            5.0320     2.7448    -2.0159 C.ar    
  12 C12            4.9906     2.6501    -0.6315 C.ar    
  13 C13            6.1029     2.2196     0.0656 C.ar    
  14 C14            7.2618     1.8821    -0.6167 C.ar    
  15 C15            7.3051     1.9768    -2.0026 C.ar    
  16 C16            6.1903     2.4012    -2.7009 C.ar    
  17 O17            8.3564     1.4589     0.0704 O.3     
  18 N18           11.2907     4.2368     0.8972 N.ar    
  19 C19           11.5201     2.9592     1.2234 C.ar    
  20 C20           10.5380     1.9745     0.9562 C.ar    
  21 C21            9.3254     2.3664     0.3456 C.ar    
  22 C22            9.1574     3.7049     0.0367 C.ar    
  23 C23           10.1684     4.6114     0.3295 C.ar    
  24 O24            1.0630     3.2888    -3.4062 O.2     
  25 C25           -0.6558     4.3779    -5.4701 C.ar    
  26 C26           -1.3951     5.5187    -5.7545 C.ar    
  27 C27           10.7815     0.6359     1.2983 C.ar    
  28 C28           11.9646     0.2935     1.8867 C.ar    
  29 C29           12.9389     1.2662     2.1525 C.ar    
  30 C30           12.7275     2.5757     1.8303 C.ar    
  31 C31           15.0625     1.9358     2.9853 C.3     
  32 O32           14.1087     0.9006     2.7395 O.3     
  33 C33           -2.7692     5.4389    -5.8678 C.ar    
  34 C34           -3.4090     4.2247    -5.6984 C.ar    
  35 C35           -2.6759     3.0870    -5.4147 C.ar    
  36 C36           -1.3010     3.1590    -5.3058 C.ar    
  37 O37           12.2005    -1.0039     2.2187 O.3     
  38 C38           11.1688    -1.9472     1.9226 C.3     
  39 C39           -4.9086     4.1413    -5.8227 C.3     
  40 F40            8.4346     1.6489    -2.6673 F       
  41 H41            3.0157     2.9686    -2.3962 H       
  42 H42            1.0138     6.8588    -7.2378 H       
  43 H43            1.9414     5.7064    -8.2275 H       
  44 H44            0.2399     5.3688    -7.8286 H       
  45 H45            4.2760     6.5547    -6.1558 H       
  46 H46            4.9429     4.9129    -6.3237 H       
  47 H47            3.8985     5.5840    -7.5993 H       
  48 H48            4.0885     2.9134    -0.0991 H       
  49 H49            6.0699     2.1462     1.1426 H       
  50 H50            6.2216     2.4704    -3.7782 H       
  51 H51            8.2445     4.0430    -0.4309 H       
  52 H52           10.0266     5.6535     0.0837 H       
  53 H53           -0.8960     6.4673    -5.8866 H       
  54 H54           10.0365    -0.1197     1.0975 H       
  55 H55           13.4865     3.3146     2.0407 H       
  56 H56           15.9484     1.5094     3.4559 H       
  57 H57           15.3422     2.4038     2.0414 H       
  58 H58           14.6246     2.6840     3.6460 H       
  59 H59           -3.3447     6.3257    -6.0886 H       
  60 H60           -3.1787     2.1404    -5.2826 H       
  61 H61           -0.7290     2.2701    -5.0842 H       
  62 H62           11.4847    -2.9418     2.2375 H       
  63 H63           10.2590    -1.6695     2.4547 H       
  64 H64           10.9759    -1.9499     0.8498 H       
  65 H65           -5.1762     3.9314    -6.8583 H       
  66 H66           -5.2824     3.3428    -5.1818 H       
  67 H67           -5.3517     5.0894    -5.5180 H       
@<TRIPOS>BOND
   1    1    2 1
   2    1    5 am
   3    1   25 1
   4    2    3 1
   5    2    9 1
   6    3    4 2
   7    3   10 1
   8    4    5 1
   9    4    6 1
  10    5   24 2
  11    6    7 2
  12    6    8 am
  13    8   11 1
  14    8   41 1
  15    9   42 1
  16    9   43 1
  17    9   44 1
  18   10   45 1
  19   10   46 1
  20   10   47 1
  21   11   12 ar
  22   11   16 ar
  23   12   13 ar
  24   12   48 1
  25   13   14 ar
  26   13   49 1
  27   14   15 ar
  28   14   17 1
  29   15   16 ar
  30   15   40 1
  31   16   50 1
  32   17   21 1
  33   18   19 ar
  34   18   23 ar
  35   19   20 ar
  36   19   30 ar
  37   20   21 ar
  38   20   27 ar
  39   21   22 ar
  40   22   23 ar
  41   22   51 1
  42   23   52 1
  43   25   26 ar
  44   25   36 ar
  45   26   33 ar
  46   26   53 1
  47   27   28 ar
  48   27   54 1
  49   28   29 ar
  50   28   37 1
  51   29   30 ar
  52   29   32 1
  53   30   55 1
  54   31   32 1
  55   31   56 1
  56   31   57 1
  57   31   58 1
  58   33   34 ar
  59   33   59 1
  60   34   35 ar
  61   34   39 1
  62   35   36 ar
  63   35   60 1
  64   36   61 1
  65   37   38 1
  66   38   62 1
  67   38   63 1
  68   38   64 1
  69   39   65 1
  70   39   66 1
  71   39   67 1

#	End of record

