#	Name: ASD01916744
#	Creating user name:	WinNT
#	Creation time:	15. 06. 2019 20:07

#	Modifying user name:	WinNT
#	Modification time:	15. 06. 2019 20:07

#	Program:	/corina/corina34_cracker 3.40 0067  02.08.2006

@<TRIPOS>MOLECULE
ASD01916744
  28   28    0    0    0
SMALL
NO_CHARGES


@<TRIPOS>ATOM
   1 C1            -0.0184     1.5028     0.0103 C.2     
   2 C2             0.0021    -0.0041     0.0020 C.3     
   3 C3             1.4513    -0.4944    -0.0145 C.3     
   4 C4             1.4713    -1.9662    -0.0225 C.1     
   5 C5             1.4872    -3.1401    -0.0290 C.1     
   6 O6             1.0197     2.1211     0.0037 O.2     
   7 O7            -1.1898     2.1580     0.0194 O.3     
   8 C8             1.5066    -4.5719    -0.0369 C.ar    
   9 C9             2.7273    -5.2477    -0.0522 C.ar    
  10 C10            2.7293    -6.6312    -0.0596 C.ar    
  11 C11            1.5107    -7.2960    -0.0515 C.ar    
  12 C12            0.3380    -6.5636    -0.0364 C.ar    
  13 N13            0.3627    -5.2465    -0.0241 N.ar    
  14 C14           -1.1335     3.6089     0.0270 C.3     
  15 C15           -2.5551     4.1744     0.0369 C.3     
  16 H16           -0.4983    -0.3791     0.8948 H       
  17 H17           -0.5153    -0.3696    -0.8850 H       
  18 H18            1.9516    -0.1193    -0.9073 H       
  19 H19            1.9686    -0.1289     0.8726 H       
  20 H20            3.6573    -4.6986    -0.0585 H       
  21 H21            3.6584    -7.1818    -0.0718 H       
  22 H22            1.4789    -8.3755    -0.0574 H       
  23 H23           -0.6113    -7.0785    -0.0305 H       
  24 H24           -0.6017     3.9472     0.9164 H       
  25 H25           -0.6102     3.9569    -0.8636 H       
  26 H26           -3.0869     3.8361    -0.8525 H       
  27 H27           -3.0784     3.8265     0.9275 H       
  28 H28           -2.5128     5.2636     0.0426 H       
@<TRIPOS>BOND
   1    1    2 1
   2    1    6 2
   3    1    7 1
   4    2    3 1
   5    2   16 1
   6    2   17 1
   7    3    4 1
   8    3   18 1
   9    3   19 1
  10    4    5 3
  11    5    8 1
  12    7   14 1
  13    8    9 ar
  14    8   13 ar
  15    9   10 ar
  16    9   20 1
  17   10   11 ar
  18   10   21 1
  19   11   12 ar
  20   11   22 1
  21   12   13 ar
  22   12   23 1
  23   14   15 1
  24   14   24 1
  25   14   25 1
  26   15   26 1
  27   15   27 1
  28   15   28 1

#	End of record

