#	Name: ASD04882018
#	Creating user name:	WinNT
#	Creation time:	15. 06. 2019 20:53

#	Modifying user name:	WinNT
#	Modification time:	15. 06. 2019 20:53

#	Program:	/corina/corina34_cracker 3.40 0067  02.08.2006

@<TRIPOS>MOLECULE
ASD04882018
  84   89    0    0    0
SMALL
NO_CHARGES


@<TRIPOS>ATOM
   1 C1            -0.7159     2.6814     2.0404 C.ar    
   2 C2            -0.7559     1.3056     1.9088 C.ar    
   3 C3             0.4186     0.5842     1.7952 C.ar    
   4 C4             1.6357     1.2362     1.8129 C.ar    
   5 C5             1.6795     2.6185     1.9450 C.ar    
   6 C6             0.4981     3.3400     2.0589 C.ar    
   7 N7             2.9089     3.2812     1.9638 N.3     
   8 C8             3.0748     4.1175     0.7668 C.3     
   9 C9             4.3949     4.8858     0.8634 C.3     
  10 N10            5.5053     3.9321     0.9941 N.3     
  11 C11            5.3395     3.0959     2.1911 C.3     
  12 C12            4.0193     2.3276     2.0945 C.3     
  13 C13            6.7309     4.5928     1.0128 C.ar    
  14 C14            7.5064     4.5842     2.1661 C.ar    
  15 C15            8.7198     5.2361     2.1889 C.ar    
  16 C16            9.1745     5.9084     1.0515 C.ar    
  17 C17            8.3964     5.9187    -0.1100 C.ar    
  18 C18            7.1824     5.2591    -0.1304 C.ar    
  19 N19            6.4000     5.2665    -1.2923 N.am    
  20 C20            6.5106     6.2809    -2.1727 C.2     
  21 C21            5.6266     6.3379    -3.3395 C.2     
  22 O22            7.3452     7.1499    -1.9984 O.2     
  23 O23            4.6638     5.4440    -3.6487 O.3     
  24 C24            5.6290     7.3166    -4.3094 C.2     
  25 C25            4.6293     6.9778    -5.2270 C.2     
  26 C26            4.0566     5.8191    -4.7871 C.2     
  27 C27           10.4738     6.6069     1.0764 C.2     
  28 N28           11.2229     6.5968     2.1967 N.am    
  29 O29           10.8687     7.1917     0.0861 O.2     
  30 C30           12.5131     7.2904     2.2214 C.3     
  31 C31           13.1547     7.1251     3.6005 C.3     
  32 C32            2.9533     5.0972    -5.4526 C.ar    
  33 C33            2.4531     3.9166    -4.8995 C.ar    
  34 C34            1.4225     3.2475    -5.5263 C.ar    
  35 C35            0.8844     3.7437    -6.7006 C.ar    
  36 C36            1.3755     4.9128    -7.2545 C.ar    
  37 C37            2.4016     5.5953    -6.6348 C.ar    
  38 C38            0.5408     4.8395     2.2024 C.3     
  39 C39           14.5021     7.8495     3.6263 C.3     
  40 N40           15.1164     7.6912     4.9469 N.am    
  41 C41           15.9393     6.6835     5.2847 C.2     
  42 C42           14.9174     8.6160     6.0690 C.3     
  43 C43           15.3732     7.8427     7.3262 C.3     
  44 C44           16.3770     6.8299     6.7254 C.3     
  45 O45           16.2806     5.7869     4.5427 O.2     
  46 H46           -1.6350     3.2422     2.1244 H       
  47 H47           -1.7065     0.7931     1.8949 H       
  48 H48            0.3838    -0.4904     1.6928 H       
  49 H49            2.5525     0.6722     1.7245 H       
  50 H50            3.0866     3.4843    -0.1204 H       
  51 H51            2.2472     4.8236     0.6989 H       
  52 H52            4.5338     5.4847    -0.0367 H       
  53 H53            4.3723     5.5393     1.7355 H       
  54 H54            6.1671     2.3898     2.2590 H       
  55 H55            5.3276     3.7291     3.0783 H       
  56 H56            3.8804     1.7287     2.9946 H       
  57 H57            4.0419     1.6740     1.2224 H       
  58 H58            7.1568     4.0655     3.0466 H       
  59 H59            9.3199     5.2279     3.0868 H       
  60 H60            8.7452     6.4378    -0.9905 H       
  61 H61            5.7785     4.5416    -1.4632 H       
  62 H62            6.2775     8.1791    -4.3525 H       
  63 H63            4.3590     7.5305    -6.1146 H       
  64 H64           10.9079     6.1303     2.9866 H       
  65 H65           13.1691     6.8647     1.4621 H       
  66 H66           12.3600     8.3500     2.0166 H       
  67 H67           12.4987     7.5509     4.3598 H       
  68 H68           13.3078     6.0656     3.8054 H       
  69 H69            2.8724     3.5281    -3.9832 H       
  70 H70            1.0350     2.3341    -5.0998 H       
  71 H71            0.0776     3.2158    -7.1873 H       
  72 H72            0.9512     5.2943    -8.1714 H       
  73 H73            2.7838     6.5079    -7.0680 H       
  74 H74            0.5909     5.2978     1.2147 H       
  75 H75           -0.3578     5.1810     2.7162 H       
  76 H76            1.4201     5.1243     2.7801 H       
  77 H77           15.1581     7.4238     2.8670 H       
  78 H78           14.3490     8.9091     3.4215 H       
  79 H79           15.5270     9.5095     5.9341 H       
  80 H80           13.8647     8.8859     6.1531 H       
  81 H81           15.8684     8.5068     8.0345 H       
  82 H82           14.5328     7.3310     7.7954 H       
  83 H83           16.3101     5.8733     7.2436 H       
  84 H84           17.3924     7.2227     6.7772 H       
@<TRIPOS>BOND
   1    1    2 ar
   2    1    6 ar
   3    1   46 1
   4    2    3 ar
   5    2   47 1
   6    3    4 ar
   7    3   48 1
   8    4    5 ar
   9    4   49 1
  10    5    6 ar
  11    5    7 1
  12    6   38 1
  13    7    8 1
  14    7   12 1
  15    8    9 1
  16    8   50 1
  17    8   51 1
  18    9   10 1
  19    9   52 1
  20    9   53 1
  21   10   11 1
  22   10   13 1
  23   11   12 1
  24   11   54 1
  25   11   55 1
  26   12   56 1
  27   12   57 1
  28   13   14 ar
  29   13   18 ar
  30   14   15 ar
  31   14   58 1
  32   15   16 ar
  33   15   59 1
  34   16   17 ar
  35   16   27 1
  36   17   18 ar
  37   17   60 1
  38   18   19 1
  39   19   20 am
  40   19   61 1
  41   20   21 1
  42   20   22 2
  43   21   23 1
  44   21   24 2
  45   23   26 1
  46   24   25 1
  47   24   62 1
  48   25   26 2
  49   25   63 1
  50   26   32 1
  51   27   28 am
  52   27   29 2
  53   28   30 1
  54   28   64 1
  55   30   31 1
  56   30   65 1
  57   30   66 1
  58   31   39 1
  59   31   67 1
  60   31   68 1
  61   32   33 ar
  62   32   37 ar
  63   33   34 ar
  64   33   69 1
  65   34   35 ar
  66   34   70 1
  67   35   36 ar
  68   35   71 1
  69   36   37 ar
  70   36   72 1
  71   37   73 1
  72   38   74 1
  73   38   75 1
  74   38   76 1
  75   39   40 1
  76   39   77 1
  77   39   78 1
  78   40   41 am
  79   40   42 1
  80   41   45 2
  81   41   44 1
  82   42   43 1
  83   42   79 1
  84   42   80 1
  85   43   44 1
  86   43   81 1
  87   43   82 1
  88   44   83 1
  89   44   84 1

#	End of record

