#	Name: ASD04590413
#	Creating user name:	WinNT
#	Creation time:	15. 06. 2019 20:50

#	Modifying user name:	WinNT
#	Modification time:	15. 06. 2019 20:50

#	Program:	/corina/corina34_cracker 3.40 0067  02.08.2006

@<TRIPOS>MOLECULE
ASD04590413
  54   57    0    0    0
SMALL
NO_CHARGES


@<TRIPOS>ATOM
   1 C1            -0.0169     1.3966     0.0097 C.ar    
   2 C2             0.0021    -0.0041     0.0020 C.ar    
   3 C3             2.4090     0.0323    -0.0204 C.ar    
   4 C4             2.3706     1.4400    -0.0129 C.ar    
   5 C5             1.1501     2.1048     0.0024 C.ar    
   6 N6             3.7153    -0.3328    -0.0357 N.2     
   7 C7             4.4702     0.7387    -0.0381 C.2     
   8 N8             3.6840     1.8602    -0.0243 N.pl3   
   9 C9             5.9476     0.7371    -0.0529 C.2     
  10 C10            6.7775    -0.4078    -0.0672 C.2     
  11 C11            8.0652     0.0153    -0.0779 C.2     
  12 N12            8.0572     1.3743    -0.0706 N.pl3   
  13 N13            6.7240     1.8029    -0.0608 N.2     
  14 N14            6.3450    -1.7438    -0.0693 N.am    
  15 C15            7.2479    -2.7443    -0.0837 C.2     
  16 O16            8.4371    -2.4901    -0.0949 O.2     
  17 C17            6.7936    -4.1479    -0.0858 C.ar    
  18 C18            1.2143    -0.6876    -0.0128 C.ar    
  19 C19            6.1639    -6.1381     1.1112 C.ar    
  20 C20            5.9395    -6.7863    -0.0898 C.ar    
  21 C21            6.1441    -6.1281    -1.2889 C.ar    
  22 C22            6.5697    -4.8131    -1.2961 C.ar    
  23 C23            6.5896    -4.8232     1.1224 C.ar    
  24 F24            6.8087    -4.1920     2.2967 F       
  25 F25            6.7686    -4.1718    -2.4685 F       
  26 C26           -1.2679    -0.7576     0.0101 C.2     
  27 N27           -2.4430    -0.0977     0.0250 N.am    
  28 O28           -1.2535    -1.9733     0.0035 O.2     
  29 C29           -3.7029    -0.8452     0.0330 C.3     
  30 C30           -4.8774     0.1351     0.0495 C.3     
  31 O31           -4.8900     0.8840    -1.1674 O.3     
  32 C32           -5.9540     1.8339    -1.2544 C.3     
  33 C33           -5.8694     2.5735    -2.5911 C.3     
  34 O34           -6.0963     1.6527    -3.6601 O.3     
  35 H35           -0.9616     1.9200     0.0170 H       
  36 H36            1.1250     3.1845     0.0081 H       
  37 H37            3.9936     2.7795    -0.0229 H       
  38 H38            8.9418    -0.6154    -0.0900 H       
  39 H39            8.8394     1.9479    -0.0754 H       
  40 H40            5.3965    -1.9466    -0.0603 H       
  41 H41            1.2298    -1.7674    -0.0180 H       
  42 H42            6.0013    -6.6594     2.0430 H       
  43 H43            5.6069    -7.8138    -0.0914 H       
  44 H44            5.9668    -6.6418    -2.2222 H       
  45 H45           -2.4545     0.8722     0.0303 H       
  46 H46           -3.7617    -1.4677    -0.8598 H       
  47 H47           -3.7446    -1.4773     0.9201 H       
  48 H48           -5.8115    -0.4186     0.1451 H       
  49 H49           -4.7706     0.8159     0.8940 H       
  50 H50           -6.9104     1.3154    -1.1859 H       
  51 H51           -5.8696     2.5499    -0.4370 H       
  52 H52           -6.6255     3.3580    -2.6207 H       
  53 H53           -4.8801     3.0181    -2.6983 H       
  54 H54           -6.0574     2.0535    -4.5393 H       
@<TRIPOS>BOND
   1    1    2 ar
   2    1    5 ar
   3    1   35 1
   4    2   18 ar
   5    2   26 1
   6    3    4 ar
   7    3    6 1
   8    3   18 ar
   9    4    5 ar
  10    4    8 1
  11    5   36 1
  12    6    7 2
  13    7    8 1
  14    7    9 1
  15    8   37 1
  16    9   10 1
  17    9   13 2
  18   10   11 2
  19   10   14 1
  20   11   12 1
  21   11   38 1
  22   12   13 1
  23   12   39 1
  24   14   15 am
  25   14   40 1
  26   15   16 2
  27   15   17 1
  28   17   23 ar
  29   17   22 ar
  30   18   41 1
  31   19   20 ar
  32   19   23 ar
  33   19   42 1
  34   20   21 ar
  35   20   43 1
  36   21   22 ar
  37   21   44 1
  38   22   25 1
  39   23   24 1
  40   26   27 am
  41   26   28 2
  42   27   29 1
  43   27   45 1
  44   29   30 1
  45   29   46 1
  46   29   47 1
  47   30   31 1
  48   30   48 1
  49   30   49 1
  50   31   32 1
  51   32   33 1
  52   32   50 1
  53   32   51 1
  54   33   34 1
  55   33   52 1
  56   33   53 1
  57   34   54 1

#	End of record

