#	Name: ASD00069089
#	Creating user name:	WinNT
#	Creation time:	15. 06. 2019 18:29

#	Modifying user name:	WinNT
#	Modification time:	15. 06. 2019 18:29

#	Program:	/corina/corina34_cracker 3.40 0067  02.08.2006

@<TRIPOS>MOLECULE
ASD00069089
  31   32    0    0    0
SMALL
NO_CHARGES


@<TRIPOS>ATOM
   1 C1             0.0611     1.6806    -0.3388 C.2     
   2 O2             0.4196     0.5235    -0.2385 O.2     
   3 O3             2.5645     4.2629    -2.1690 O.3     
   4 C4             2.9279     2.8852    -2.0516 C.3     
   5 C5             2.3952     2.3341    -0.7240 C.3     
   6 N6             0.9586     2.6407    -0.6372 N.am    
   7 C7             0.5309     4.0265    -0.8863 C.3     
   8 C8             1.1544     4.4951    -2.2060 C.3     
   9 C9            -1.3606     2.0339    -0.1395 C.ar    
  10 C10           -2.3656     1.2036    -0.6378 C.ar    
  11 C11           -3.6905     1.5392    -0.4484 C.ar    
  12 C12           -4.0236     2.6957     0.2337 C.ar    
  13 C13           -3.0319     3.5235     0.7299 C.ar    
  14 C14           -1.7036     3.1965     0.5529 C.ar    
  15 N15           -5.4469     3.0494     0.4332 N.pl3   
  16 O16           -5.8506     4.1534     0.1140 O.2     
  17 O17           -6.2145     2.2366     0.9166 O.2     
  18 N18           -4.7577     0.6600    -0.9766 N.pl3   
  19 O19           -4.4726    -0.4210    -1.4601 O.2     
  20 O20           -5.9210     1.0176    -0.9278 O.2     
  21 H21            2.4953     2.3228    -2.8790 H       
  22 H22            4.0136     2.7918    -2.0752 H       
  23 H23            2.5430     1.2547    -0.6889 H       
  24 H24            2.9218     2.8044     0.1064 H       
  25 H25           -0.5559     4.0678    -0.9586 H       
  26 H26            0.8698     4.6672    -0.0722 H       
  27 H27            0.9642     5.5599    -2.3406 H       
  28 H28            0.7153     3.9386    -3.0340 H       
  29 H29           -2.1069     0.3006    -1.1708 H       
  30 H30           -3.2986     4.4252     1.2613 H       
  31 H31           -0.9307     3.8407     0.9451 H       
@<TRIPOS>BOND
   1    1    2 2
   2    1    6 am
   3    1    9 1
   4    3    4 1
   5    3    8 1
   6    4    5 1
   7    4   21 1
   8    4   22 1
   9    5    6 1
  10    5   23 1
  11    5   24 1
  12    6    7 1
  13    7    8 1
  14    7   25 1
  15    7   26 1
  16    8   27 1
  17    8   28 1
  18    9   10 ar
  19    9   14 ar
  20   10   11 ar
  21   10   29 1
  22   11   12 ar
  23   11   18 1
  24   12   13 ar
  25   12   15 1
  26   13   14 ar
  27   13   30 1
  28   14   31 1
  29   15   16 2
  30   15   17 2
  31   18   19 2
  32   18   20 2

#	End of record

