#	Name: ASD01120282
#	Creating user name:	WinNT
#	Creation time:	15. 06. 2019 18:59

#	Modifying user name:	WinNT
#	Modification time:	15. 06. 2019 18:59

#	Program:	/corina/corina34_cracker 3.40 0067  02.08.2006

@<TRIPOS>MOLECULE
ASD01120282
  39   41    0    0    0
SMALL
NO_CHARGES


@<TRIPOS>ATOM
   1 C1             0.3607     1.2512     0.6216 C.3     
   2 C2             0.2690    -0.2255     0.2320 C.3     
   3 O3            -1.0764    -0.7099     0.4841 O.3     
   4 C4            -1.3265    -2.0027     0.1920 C.2     
   5 O5            -0.4436    -2.7055    -0.2611 O.2     
   6 C6            -2.6636    -2.5610     0.4208 C.2     
   7 N7            -3.7475    -1.8670     0.9289 N.pl3   
   8 C8            -4.8241    -2.7198     0.9988 C.ar    
   9 C9            -4.3988    -3.9748     0.5224 C.ar    
  10 C10           -3.0391    -3.8431     0.1621 C.2     
  11 C11           -5.3088    -5.0487     0.4827 C.ar    
  12 C12           -6.6093    -4.8569     0.9123 C.ar    
  13 C13           -7.0180    -3.6165     1.3793 C.ar    
  14 C14           -6.1393    -2.5561     1.4245 C.ar    
  15 N15           -6.5949    -1.2401     1.9266 N.pl3   
  16 O16           -7.7454    -1.0955     2.2993 O.2     
  17 O17           -5.8192    -0.3019     1.9671 O.2     
  18 N18           -4.9022    -6.2949     0.0137 N.pl3   
  19 C19           -5.7571    -7.3945     0.1210 C.ar    
  20 C20           -5.8823    -8.2851    -0.9381 C.ar    
  21 C21           -6.7279    -9.3713    -0.8284 C.ar    
  22 C22           -7.4496    -9.5732     0.3339 C.ar    
  23 C23           -7.3274    -8.6887     1.3899 C.ar    
  24 C24           -6.4796    -7.6033     1.2891 C.ar    
  25 H25            1.3707     1.6148     0.4324 H       
  26 H26           -0.3500     1.8280     0.0297 H       
  27 H27            0.1268     1.3628     1.6804 H       
  28 H28            0.5030    -0.3371    -0.8267 H       
  29 H29            0.9797    -0.8023     0.8239 H       
  30 H30           -3.7478    -0.9335     1.1925 H       
  31 H31           -2.4089    -4.6220    -0.2409 H       
  32 H32           -7.3108    -5.6776     0.8837 H       
  33 H33           -8.0365    -3.4803     1.7115 H       
  34 H34           -4.0253    -6.3996    -0.3876 H       
  35 H35           -5.3192    -8.1278    -1.8461 H       
  36 H36           -6.8259   -10.0638    -1.6514 H       
  37 H37           -8.1105   -10.4233     0.4168 H       
  38 H38           -7.8925    -8.8494     2.2962 H       
  39 H39           -6.3847    -6.9130     2.1142 H       
@<TRIPOS>BOND
   1    1    2 1
   2    1   25 1
   3    1   26 1
   4    1   27 1
   5    2    3 1
   6    2   28 1
   7    2   29 1
   8    3    4 1
   9    4    5 2
  10    4    6 1
  11    6    7 1
  12    6   10 2
  13    7    8 1
  14    7   30 1
  15    8    9 ar
  16    8   14 ar
  17    9   10 1
  18    9   11 ar
  19   10   31 1
  20   11   12 ar
  21   11   18 1
  22   12   13 ar
  23   12   32 1
  24   13   14 ar
  25   13   33 1
  26   14   15 1
  27   15   16 2
  28   15   17 2
  29   18   19 1
  30   18   34 1
  31   19   20 ar
  32   19   24 ar
  33   20   21 ar
  34   20   35 1
  35   21   22 ar
  36   21   36 1
  37   22   23 ar
  38   22   37 1
  39   23   24 ar
  40   23   38 1
  41   24   39 1

#	End of record

