#	Name: ASD01813638
#	Creating user name:	WinNT
#	Creation time:	15. 06. 2019 19:30

#	Modifying user name:	WinNT
#	Modification time:	15. 06. 2019 19:30

#	Program:	/corina/corina34_cracker 3.40 0067  02.08.2006

@<TRIPOS>MOLECULE
ASD01813638
  51   54    0    0    0
SMALL
NO_CHARGES


@<TRIPOS>ATOM
   1 C1            -0.9073     0.9157     0.3933 C.ar    
   2 C2            -0.8346    -0.4686     0.3382 C.ar    
   3 C3             0.3853    -1.1070     0.2517 C.ar    
   4 C4             1.5615    -0.3585     0.2188 C.ar    
   5 C5             1.4831     1.0430     0.2747 C.ar    
   6 C6             0.2422     1.6740     0.3622 C.ar    
   7 N7             2.7874    -0.9836     0.1335 N.pl3   
   8 C8             3.9442    -0.3105     0.1002 C.2     
   9 C9             3.9947     1.0682     0.1492 C.2     
  10 C10            2.7344     1.8230     0.2391 C.2     
  11 O11            2.7253     3.0406     0.2848 O.2     
  12 C12            5.2852     1.7705     0.1113 C.2     
  13 O13            5.3214     3.1172     0.1598 O.3     
  14 O14            6.3200     1.1370     0.0362 O.2     
  15 C15            2.8258    -2.4470     0.0773 C.3     
  16 C16            2.7995    -2.8954    -1.3612 C.ar    
  17 C17            3.9670    -2.9393    -2.0997 C.ar    
  18 N18            3.9573    -3.3295    -3.3584 N.ar    
  19 C19            2.8347    -3.6937    -3.9649 C.ar    
  20 C20            1.6209    -3.6735    -3.2798 C.ar    
  21 C21            1.6032    -3.2735    -1.9554 C.ar    
  22 F22            0.4405    -2.4559     0.1993 F       
  23 C23            2.8716    -4.1251    -5.3828 C.ar    
  24 C24            4.0823    -4.1474    -6.0746 C.ar    
  25 C25            4.1143    -4.5487    -7.3926 C.ar    
  26 C26            2.9406    -4.9308    -8.0328 C.ar    
  27 C27            1.7323    -4.9094    -7.3449 C.ar    
  28 C28            1.6966    -4.5146    -6.0250 C.ar    
  29 N29            2.9751    -5.3358    -9.3670 N.am    
  30 S30            3.5637    -6.8321    -9.7631 S.o2    
  31 O31            3.4564    -6.8873   -11.1790 O.2     
  32 O32            4.8302    -6.8916    -9.1215 O.2     
  33 C33            2.4038    -7.9936    -8.9911 C.3     
  34 H34           -1.8699     1.4013     0.4563 H       
  35 H35           -1.7426    -1.0528     0.3638 H       
  36 H36            0.1829     2.7516     0.4048 H       
  37 H37            4.8688    -0.8646     0.0331 H       
  38 H38            6.1934     3.5342     0.1321 H       
  39 H39            3.7390    -2.8050     0.5528 H       
  40 H40            1.9603    -2.8535     0.6005 H       
  41 H41            4.8999    -2.6497    -1.6390 H       
  42 H42            0.7078    -3.9698    -3.7746 H       
  43 H43            0.6781    -3.2480    -1.3988 H       
  44 H44            4.9941    -3.8500    -5.5780 H       
  45 H45            5.0517    -4.5661    -7.9288 H       
  46 H46            0.8218    -5.2065    -7.8440 H       
  47 H47            0.7580    -4.4981    -5.4911 H       
  48 H48            2.6545    -4.7409   -10.0628 H       
  49 H49            1.4231    -7.8904    -9.4555 H       
  50 H50            2.7651    -9.0129    -9.1279 H       
  51 H51            2.3261    -7.7756    -7.9260 H       
@<TRIPOS>BOND
   1    1    2 ar
   2    1    6 ar
   3    1   34 1
   4    2    3 ar
   5    2   35 1
   6    3    4 ar
   7    3   22 1
   8    4    5 ar
   9    4    7 1
  10    5    6 ar
  11    5   10 1
  12    6   36 1
  13    7    8 1
  14    7   15 1
  15    8    9 2
  16    8   37 1
  17    9   10 1
  18    9   12 1
  19   10   11 2
  20   12   13 1
  21   12   14 2
  22   13   38 1
  23   15   16 1
  24   15   39 1
  25   15   40 1
  26   16   17 ar
  27   16   21 ar
  28   17   18 ar
  29   17   41 1
  30   18   19 ar
  31   19   20 ar
  32   19   23 1
  33   20   21 ar
  34   20   42 1
  35   21   43 1
  36   23   24 ar
  37   23   28 ar
  38   24   25 ar
  39   24   44 1
  40   25   26 ar
  41   25   45 1
  42   26   27 ar
  43   26   29 1
  44   27   28 ar
  45   27   46 1
  46   28   47 1
  47   29   30 am
  48   29   48 1
  49   30   31 2
  50   30   32 2
  51   30   33 1
  52   33   49 1
  53   33   50 1
  54   33   51 1

#	End of record

