#	Name: ASD08830013
#	Creating user name:	WinNT
#	Creation time:	15. 06. 2019 21:19

#	Modifying user name:	WinNT
#	Modification time:	15. 06. 2019 21:19

#	Program:	/corina/corina34_cracker 3.40 0067  02.08.2006

@<TRIPOS>MOLECULE
ASD08830013
  33   34    0    0    0
SMALL
NO_CHARGES


@<TRIPOS>ATOM
   1 C1            -0.0167     1.3830     0.0096 C.ar    
   2 C2             0.0021    -0.0041     0.0020 C.ar    
   3 C3             1.1714     2.0989     0.0021 C.ar    
   4 C4             2.3786     1.4358    -0.0130 C.ar    
   5 C5             2.4047     0.0366    -0.0208 C.ar    
   6 C6             1.2024    -0.6796    -0.0131 C.ar    
   7 C7             3.6895    -0.6778    -0.0374 C.2     
   8 C8             3.7138    -2.1845    -0.0458 C.3     
   9 C9             5.1642    -2.6711    -0.0629 C.3     
  10 N10            5.1879    -4.1399    -0.0710 N.3     
  11 C11            6.5454    -4.6435    -0.3256 C.3     
  12 O12            4.7298    -0.0545    -0.0444 O.2     
  13 C13            6.5359    -6.1733    -0.2663 C.3     
  14 O14            5.5861    -6.6760    -1.2100 O.3     
  15 C15            4.2531    -6.2061    -0.9913 C.3     
  16 C16            4.2396    -4.6766    -1.0579 C.3     
  17 F17           -1.1975     2.0395     0.0188 F       
  18 H18           -0.9265    -0.5556     0.0083 H       
  19 H19            1.1498     3.1787     0.0078 H       
  20 H20            3.3029     1.9943    -0.0192 H       
  21 H21            1.2157    -1.7595    -0.0187 H       
  22 H22            3.2148    -2.5609     0.8472 H       
  23 H23            3.1970    -2.5513    -0.9327 H       
  24 H24            5.6633    -2.2947    -0.9558 H       
  25 H25            5.6810    -2.3043     0.8240 H       
  26 H26            6.8746    -4.3196    -1.3129 H       
  27 H27            7.2260    -4.2542     0.4316 H       
  28 H28            7.5278    -6.5533    -0.5108 H       
  29 H29            6.2585    -6.4970     0.7368 H       
  30 H30            3.5942    -6.6098    -1.7600 H       
  31 H31            3.9094    -6.5307    -0.0092 H       
  32 H32            3.2370    -4.3115    -0.8353 H       
  33 H33            4.5319    -4.3532    -2.0569 H       
@<TRIPOS>BOND
   1    1    2 ar
   2    1    3 ar
   3    1   17 1
   4    2    6 ar
   5    2   18 1
   6    3    4 ar
   7    3   19 1
   8    4    5 ar
   9    4   20 1
  10    5    6 ar
  11    5    7 1
  12    6   21 1
  13    7    8 1
  14    7   12 2
  15    8    9 1
  16    8   22 1
  17    8   23 1
  18    9   10 1
  19    9   24 1
  20    9   25 1
  21   10   11 1
  22   10   16 1
  23   11   13 1
  24   11   26 1
  25   11   27 1
  26   13   14 1
  27   13   28 1
  28   13   29 1
  29   14   15 1
  30   15   16 1
  31   15   30 1
  32   15   31 1
  33   16   32 1
  34   16   33 1

#	End of record

