#	Name: ASD03330108
#	Creating user name:	WinNT
#	Creation time:	15. 06. 2019 20:36

#	Modifying user name:	WinNT
#	Modification time:	15. 06. 2019 20:36

#	Program:	/corina/corina34_cracker 3.40 0067  02.08.2006

@<TRIPOS>MOLECULE
ASD03330108
  54   57    0    0    0
SMALL
NO_CHARGES


@<TRIPOS>ATOM
   1 C1            -0.1412     1.7215     0.4802 C.ar    
   2 C2            -0.0089     0.2548     0.3436 C.2     
   3 N3            -0.9849    -0.6580     0.5863 N.pl3   
   4 C4            -0.4653    -1.8909     0.3436 C.2     
   5 C5             0.8218    -1.7176    -0.0430 C.2     
   6 N6             1.0734    -0.3896    -0.0398 N.2     
   7 C7             1.7752    -2.7858    -0.4072 C.2     
   8 N8             1.5330    -4.0763    -0.4166 N.2     
   9 C9            -2.3702    -0.4131     1.0336 C.3     
  10 C10           -2.5100    -1.0539     2.4241 C.3     
  11 C11           -2.7131    -2.5450     2.3119 C.3     
  12 N12           -1.5629    -3.3333     1.9242 N.3     
  13 C13           -1.2314    -3.1924     0.4928 C.3     
  14 C14            0.5805     2.5705    -0.3594 C.ar    
  15 C15           -1.7465    -4.7453     2.2855 C.3     
  16 C16           -3.2022    -3.0584     3.6677 C.3     
  17 C17            0.4528     3.9396    -0.2277 C.ar    
  18 C18           -0.3913     4.4694     0.7381 C.ar    
  19 C19           -1.1089     3.6290     1.5737 C.ar    
  20 C20           -0.9927     2.2606     1.4456 C.ar    
  21 F21           -0.5132     5.8090     0.8642 F       
  22 F22            1.1506     4.7637    -1.0395 F       
  23 O23            3.0546    -2.6171    -0.7975 O.3     
  24 C24            3.5457    -3.8483    -1.0268 C.2     
  25 N25            2.5936    -4.7044    -0.7851 N.2     
  26 C26            4.9432    -4.1777    -1.4846 C.3     
  27 C27            4.8804    -4.9186    -2.8218 C.3     
  28 C28            5.7420    -2.8840    -1.6554 C.3     
  29 C29            5.6258    -5.0647    -0.4416 C.3     
  30 H30           -2.5568     0.6589     1.0972 H       
  31 H31           -3.0727    -0.8738     0.3390 H       
  32 H32           -1.6065    -0.8578     3.0015 H       
  33 H33           -3.3648    -0.6135     2.9374 H       
  34 H34           -3.5041    -2.7229     1.5834 H       
  35 H35           -2.1459    -3.1561    -0.0993 H       
  36 H36           -0.6110    -4.0285     0.1703 H       
  37 H37            1.2379     2.1582    -1.1106 H       
  38 H38           -2.6908    -5.1051     1.8769 H       
  39 H39           -0.9257    -5.3346     1.8767 H       
  40 H40           -1.7591    -4.8439     3.3709 H       
  41 H41           -4.0680    -2.4774     3.9854 H       
  42 H42           -3.4817    -4.1082     3.5793 H       
  43 H43           -2.4054    -2.9553     4.4042 H       
  44 H44           -1.7639     4.0463     2.3242 H       
  45 H45           -1.5532     1.6071     2.0976 H       
  46 H46            4.3941    -4.2867    -3.5649 H       
  47 H47            5.8912    -5.1568    -3.1529 H       
  48 H48            4.3113    -5.8402    -2.7001 H       
  49 H49            5.7867    -2.3562    -0.7028 H       
  50 H50            6.7528    -3.1222    -1.9866 H       
  51 H51            5.2557    -2.2521    -2.3985 H       
  52 H52            5.0567    -5.9863    -0.3199 H       
  53 H53            6.6366    -5.3029    -0.7727 H       
  54 H54            5.6705    -4.5368     0.5110 H       
@<TRIPOS>BOND
   1    1    2 1
   2    1   14 ar
   3    1   20 ar
   4    2    3 1
   5    2    6 2
   6    3    4 1
   7    3    9 1
   8    4    5 2
   9    4   13 1
  10    5    6 1
  11    5    7 1
  12    7    8 2
  13    7   23 1
  14    8   25 1
  15    9   10 1
  16    9   30 1
  17    9   31 1
  18   10   11 1
  19   10   32 1
  20   10   33 1
  21   11   12 1
  22   11   16 1
  23   11   34 1
  24   12   13 1
  25   12   15 1
  26   13   35 1
  27   13   36 1
  28   14   17 ar
  29   14   37 1
  30   15   38 1
  31   15   39 1
  32   15   40 1
  33   16   41 1
  34   16   42 1
  35   16   43 1
  36   17   18 ar
  37   17   22 1
  38   18   19 ar
  39   18   21 1
  40   19   20 ar
  41   19   44 1
  42   20   45 1
  43   23   24 1
  44   24   25 2
  45   24   26 1
  46   26   27 1
  47   26   28 1
  48   26   29 1
  49   27   46 1
  50   27   47 1
  51   27   48 1
  52   28   49 1
  53   28   50 1
  54   28   51 1
  55   29   52 1
  56   29   53 1
  57   29   54 1

#	End of record

