#	Name: ASD01881318
#	Creating user name:	WinNT
#	Creation time:	15. 06. 2019 19:42

#	Modifying user name:	WinNT
#	Modification time:	15. 06. 2019 19:42

#	Program:	/corina/corina34_cracker 3.40 0067  02.08.2006

@<TRIPOS>MOLECULE
ASD01881318
  59   60    0    0    0
SMALL
NO_CHARGES


@<TRIPOS>ATOM
   1 C1            -0.1977     1.4383     1.3835 C.2     
   2 C2            -0.1751    -0.0108     1.1156 C.ar    
   3 C3             0.9922    -0.6185     0.6393 C.ar    
   4 C4             1.0079    -1.9741     0.3903 C.ar    
   5 C5            -0.1328    -2.7362     0.6117 C.ar    
   6 C6            -1.2942    -2.1359     1.0848 C.ar    
   7 C7            -1.3179    -0.7837     1.3419 C.ar    
   8 O8             0.7982     2.1074     1.1908 O.2     
   9 O9            -1.3244     2.0222     1.8368 O.3     
  10 O10           -0.1133    -4.0704     0.3649 O.3     
  11 C11           -1.3201    -4.7940     0.6141 C.3     
  12 C12           -1.1068    -6.2718     0.2804 C.3     
  13 C13           -2.3989    -7.0465     0.5472 C.3     
  14 C14           -2.1856    -8.5244     0.2135 C.3     
  15 O15           -3.3925    -9.2480     0.4627 O.3     
  16 C16           -3.3729   -10.5818     0.2159 C.ar    
  17 C17           -4.5148   -11.3443     0.4376 C.ar    
  18 C18           -4.5033   -12.6878     0.1917 C.ar    
  19 C19           -3.3390   -13.3025    -0.2854 C.ar    
  20 C20           -2.1890   -12.5352    -0.5088 C.ar    
  21 C21           -2.2129   -11.1810    -0.2632 C.ar    
  22 C22           -3.3239   -14.7470    -0.5502 C.2     
  23 C23           -2.0363   -15.4292    -0.9343 C.3     
  24 C24           -2.2950   -16.9214    -1.1523 C.3     
  25 C25           -3.2254   -17.1076    -2.3525 C.3     
  26 O26           -4.3478   -15.3909    -0.4597 O.2     
  27 C27           -0.9684   -17.6352    -1.4198 C.3     
  28 C28           -5.7435   -13.5088     0.4343 C.3     
  29 C29           -5.7691   -10.6859     0.9515 C.3     
  30 Cl30           2.4173     0.3332     0.3620 Cl      
  31 H31            1.9078    -2.4445     0.0224 H       
  32 H32           -2.1784    -2.7323     1.2550 H       
  33 H33           -2.2194    -0.3197     1.7140 H       
  34 H34           -1.2908     2.9751     1.9980 H       
  35 H35           -1.5932    -4.6944     1.6646 H       
  36 H36           -2.1196    -4.3926    -0.0087 H       
  37 H37           -0.8338    -6.3714    -0.7701 H       
  38 H38           -0.3074    -6.6732     0.9032 H       
  39 H39           -2.6720    -6.9470     1.5977 H       
  40 H40           -3.1984    -6.6452    -0.0756 H       
  41 H41           -1.9126    -8.6240    -0.8370 H       
  42 H42           -1.3862    -8.9258     0.8363 H       
  43 H43           -1.2880   -13.0035    -0.8767 H       
  44 H44           -1.3297   -10.5846    -0.4385 H       
  45 H45           -1.6522   -14.9888    -1.8545 H       
  46 H46           -1.3047   -15.3001    -0.1367 H       
  47 H47           -2.7615   -17.3431    -0.2620 H       
  48 H48           -3.4098   -18.1706    -2.5078 H       
  49 H49           -4.1705   -16.5990    -2.1620 H       
  50 H50           -2.7589   -16.6859    -3.2428 H       
  51 H51           -0.3056   -17.5025    -0.5647 H       
  52 H52           -1.1528   -18.6983    -1.5751 H       
  53 H53           -0.5019   -17.2135    -2.3101 H       
  54 H54           -6.2881   -13.6298    -0.5021 H       
  55 H55           -5.4611   -14.4885     0.8196 H       
  56 H56           -6.3784   -13.0018     1.1609 H       
  57 H57           -6.3757   -10.3526     0.1094 H       
  58 H58           -6.3366   -11.4006     1.5476 H       
  59 H59           -5.5024    -9.8283     1.5691 H       
@<TRIPOS>BOND
   1    1    2 1
   2    1    8 2
   3    1    9 1
   4    2    3 ar
   5    2    7 ar
   6    3    4 ar
   7    3   30 1
   8    4    5 ar
   9    4   31 1
  10    5    6 ar
  11    5   10 1
  12    6    7 ar
  13    6   32 1
  14    7   33 1
  15    9   34 1
  16   10   11 1
  17   11   12 1
  18   11   35 1
  19   11   36 1
  20   12   13 1
  21   12   37 1
  22   12   38 1
  23   13   14 1
  24   13   39 1
  25   13   40 1
  26   14   15 1
  27   14   41 1
  28   14   42 1
  29   15   16 1
  30   16   17 ar
  31   16   21 ar
  32   17   18 ar
  33   17   29 1
  34   18   19 ar
  35   18   28 1
  36   19   20 ar
  37   19   22 1
  38   20   21 ar
  39   20   43 1
  40   21   44 1
  41   22   23 1
  42   22   26 2
  43   23   24 1
  44   23   45 1
  45   23   46 1
  46   24   25 1
  47   24   27 1
  48   24   47 1
  49   25   48 1
  50   25   49 1
  51   25   50 1
  52   27   51 1
  53   27   52 1
  54   27   53 1
  55   28   54 1
  56   28   55 1
  57   28   56 1
  58   29   57 1
  59   29   58 1
  60   29   59 1

#	End of record

