#	Name: ASD00310074
#	Creating user name:	WinNT
#	Creation time:	15. 06. 2019 18:33

#	Modifying user name:	WinNT
#	Modification time:	15. 06. 2019 18:33

#	Program:	/corina/corina34_cracker 3.40 0067  02.08.2006

@<TRIPOS>MOLECULE
ASD00310074
  41   44    0    0    0
SMALL
NO_CHARGES


@<TRIPOS>ATOM
   1 N1            -0.0162     1.3435     0.0192 N.pl3   
   2 C2             0.0022    -0.0028     0.0584 C.2     
   3 C3             1.3065    -0.4482     0.0662 C.2     
   4 C4             2.1541     0.7608     0.0275 C.ar    
   5 C5             3.5275     0.9739     0.0162 C.ar    
   6 C6             4.0204     2.2722    -0.0232 C.ar    
   7 C7             3.1349     3.3561    -0.0513 C.ar    
   8 C8             1.7737     3.1461    -0.0397 C.ar    
   9 C9             1.2675     1.8494    -0.0007 C.ar    
  10 C10            1.7459    -1.7949     0.1037 C.2     
  11 O11            0.9345    -2.6975     0.1328 O.2     
  12 C12            5.4848     2.5099    -0.0351 C.ar    
  13 C13            6.0468     3.3592    -0.9853 C.ar    
  14 C14            7.4145     3.5774    -0.9909 C.ar    
  15 C15            8.2215     2.9504    -0.0511 C.ar    
  16 C16            7.6644     2.1072     0.8916 C.ar    
  17 C17            6.3013     1.8885     0.9080 C.ar    
  18 O18            7.9667     4.4051    -1.9166 O.3     
  19 C19            7.0772     5.0162    -2.8533 C.3     
  20 O20           11.1788     4.2507     0.9421 O.3     
  21 C21           10.1193     4.6619     0.0684 C.3     
  22 C22            9.7094     3.1895    -0.0594 C.3     
  23 C23           10.3728     3.1277     1.3220 C.3     
  24 O24           10.3977     2.4679    -1.0829 O.3     
  25 F25            3.6189     4.6168    -0.0896 F       
  26 H26           -0.8219     1.8835     0.0030 H       
  27 H27           -0.8719    -0.6367     0.0804 H       
  28 H28            4.2075     0.1351     0.0383 H       
  29 H29            1.0980     3.9884    -0.0612 H       
  30 H30            2.8025    -2.0183     0.1064 H       
  31 H31            5.4179     3.8461    -1.7159 H       
  32 H32            8.2965     1.6215     1.6203 H       
  33 H33            5.8683     1.2328     1.6490 H       
  34 H34            7.6456     5.6500    -3.5339 H       
  35 H35            6.5615     4.2427    -3.4224 H       
  36 H36            6.3459     5.6219    -2.3180 H       
  37 H37            9.3677     5.2792     0.5604 H       
  38 H38           10.4733     5.0953    -0.8670 H       
  39 H39           10.9490     2.2169     1.4850 H       
  40 H40            9.6874     3.3445     2.1413 H       
  41 H41           11.3532     2.6165    -1.0942 H       
@<TRIPOS>BOND
   1    1    2 1
   2    1    9 1
   3    1   26 1
   4    2    3 2
   5    2   27 1
   6    3    4 1
   7    3   10 1
   8    4    5 ar
   9    4    9 ar
  10    5    6 ar
  11    5   28 1
  12    6    7 ar
  13    6   12 1
  14    7    8 ar
  15    7   25 1
  16    8    9 ar
  17    8   29 1
  18   10   11 2
  19   10   30 1
  20   12   13 ar
  21   12   17 ar
  22   13   14 ar
  23   13   31 1
  24   14   15 ar
  25   14   18 1
  26   15   16 ar
  27   15   22 1
  28   16   17 ar
  29   16   32 1
  30   17   33 1
  31   18   19 1
  32   19   34 1
  33   19   35 1
  34   19   36 1
  35   20   21 1
  36   20   23 1
  37   21   22 1
  38   21   37 1
  39   21   38 1
  40   22   23 1
  41   22   24 1
  42   23   39 1
  43   23   40 1
  44   24   41 1

#	End of record

