#	Name: ASD01882296
#	Creating user name:	WinNT
#	Creation time:	15. 06. 2019 19:44

#	Modifying user name:	WinNT
#	Modification time:	15. 06. 2019 19:44

#	Program:	/corina/corina34_cracker 3.40 0067  02.08.2006

@<TRIPOS>MOLECULE
ASD01882296
  41   42    0    0    0
SMALL
NO_CHARGES


@<TRIPOS>ATOM
   1 C1            -0.0168     1.3844     0.0097 C.ar    
   2 C2             0.0021    -0.0041     0.0020 C.ar    
   3 C3             1.2041    -0.6788    -0.0131 C.ar    
   4 C4             2.4033     0.0355    -0.0208 C.ar    
   5 C5             2.3802     1.4310    -0.0131 C.ar    
   6 C6             1.1741     2.0986     0.0021 C.ar    
   7 O7            -1.2035     2.0459     0.0189 O.3     
   8 C8             6.0561    -0.8351     0.7406 C.3     
   9 C9             4.6091    -0.5584     1.1458 C.3     
  10 C10            3.6944    -0.6842    -0.0365 C.2     
  11 C11            4.0191    -1.3835    -1.0993 C.2     
  12 C12            5.2844    -2.1841    -1.1942 C.3     
  13 N13            6.1494    -2.0598    -0.0356 N.3     
  14 C14            4.8854    -3.6671    -1.3401 C.3     
  15 C15            6.0365    -1.7872    -2.4704 C.3     
  16 C16            6.6092     0.3668    -0.0336 C.3     
  17 C17            6.8928    -0.9957     2.0263 C.3     
  18 C18            7.5410    -2.4118    -0.3471 C.3     
  19 H19           -0.9262    -0.5560     0.0083 H       
  20 H20            1.2180    -1.7587    -0.0187 H       
  21 H21            3.3059     1.9872    -0.0190 H       
  22 H22            1.1554     3.1784     0.0081 H       
  23 H23           -1.5428     2.2325     0.9049 H       
  24 H24            4.3071    -1.2732     1.9141 H       
  25 H25            4.5355     0.4509     1.5550 H       
  26 H26            3.3437    -1.3824    -1.9449 H       
  27 H27            4.2854    -3.7950    -2.2411 H       
  28 H28            5.7840    -4.2798    -1.4120 H       
  29 H29            4.3048    -3.9744    -0.4703 H       
  30 H30            6.2772    -0.7247    -2.4348 H       
  31 H31            6.9571    -2.3661    -2.5446 H       
  32 H32            5.4096    -1.9887    -3.3391 H       
  33 H33            6.5724     1.2542     0.5983 H       
  34 H34            7.6415     0.1691    -0.3225 H       
  35 H35            6.0071     0.5318    -0.9271 H       
  36 H36            6.5020    -1.8273     2.6126 H       
  37 H37            7.9314    -1.1942     1.7615 H       
  38 H38            6.8364    -0.0790     2.6134 H       
  39 H39            8.0959    -2.5545     0.5802 H       
  40 H40            7.5612    -3.3338    -0.9282 H       
  41 H41            7.9985    -1.6084    -0.9244 H       
@<TRIPOS>BOND
   1    1    2 ar
   2    1    6 ar
   3    1    7 1
   4    2    3 ar
   5    2   19 1
   6    3    4 ar
   7    3   20 1
   8    4    5 ar
   9    4   10 1
  10    5    6 ar
  11    5   21 1
  12    6   22 1
  13    7   23 1
  14    8    9 1
  15    8   13 1
  16    8   16 1
  17    8   17 1
  18    9   10 1
  19    9   24 1
  20    9   25 1
  21   10   11 2
  22   11   12 1
  23   11   26 1
  24   12   13 1
  25   12   14 1
  26   12   15 1
  27   13   18 1
  28   14   27 1
  29   14   28 1
  30   14   29 1
  31   15   30 1
  32   15   31 1
  33   15   32 1
  34   16   33 1
  35   16   34 1
  36   16   35 1
  37   17   36 1
  38   17   37 1
  39   17   38 1
  40   18   39 1
  41   18   40 1
  42   18   41 1

#	End of record

