#	Name: ASD03092753
#	Creating user name:	WinNT
#	Creation time:	15. 06. 2019 20:33

#	Modifying user name:	WinNT
#	Modification time:	15. 06. 2019 20:33

#	Program:	/corina/corina34_cracker 3.40 0067  02.08.2006

@<TRIPOS>MOLECULE
ASD03092753
  37   39    0    0    0
SMALL
NO_CHARGES


@<TRIPOS>ATOM
   1 C1            -0.0187     1.5258     0.0104 C.3     
   2 C2             0.0021    -0.0041     0.0020 C.3     
   3 F3             0.6787    -0.4675     1.1354 F       
   4 F4            -1.3104    -0.4883     0.0119 F       
   5 C5             0.7074    -0.4901    -1.2379 C.ar    
   6 C6             0.8495    -1.8427    -1.4761 C.ar    
   7 C7             1.5102    -2.2452    -2.6389 C.ar    
   8 N8             1.6778    -3.5906    -2.9233 N.pl3   
   9 C9             1.1602    -4.6043    -2.0010 C.3     
  10 C10            1.4711    -5.9776    -2.5380 C.ar    
  11 C11            0.5765    -6.6176    -3.3816 C.ar    
  12 N12            0.8219    -7.8169    -3.8649 N.ar    
  13 C13            1.9366    -8.4721    -3.5693 C.ar    
  14 N14            2.4273    -9.7041    -3.9295 N.pl3   
  15 H15            1.9763   -10.3333    -4.5139 H       
  16 C16            3.6465    -9.9132    -3.3423 C.2     
  17 C17            3.9836    -8.8491    -2.5969 C.2     
  18 C18            2.8910    -7.8823    -2.7180 C.ar    
  19 C19            2.6535    -6.6081    -2.1981 C.ar    
  20 C20            4.4852   -11.1542    -3.5080 C.3     
  21 F21            3.8254   -12.0537    -4.3523 F       
  22 F22            5.7209   -10.8107    -4.0669 F       
  23 F23            4.6880   -11.7502    -2.2587 F       
  24 N24            1.9753    -1.3162    -3.4688 N.ar    
  25 C25            1.8172    -0.0356    -3.2015 C.ar    
  26 N26            1.1943     0.3759    -2.1158 N.ar    
  27 H27            1.0039     1.9031     0.0027 H       
  28 H28           -0.5459     1.8868    -0.8726 H       
  29 H29           -0.5289     1.8773     0.9072 H       
  30 H30            0.4598    -2.5712    -0.7805 H       
  31 H31            2.1379    -3.8615    -3.7332 H       
  32 H32            1.6296    -4.4810    -1.0250 H       
  33 H33            0.0809    -4.4885    -1.9023 H       
  34 H34           -0.3442    -6.1201    -3.6486 H       
  35 H35            4.8876    -8.7292    -2.0183 H       
  36 H36            3.3706    -6.1309    -1.5466 H       
  37 H37            2.2056     0.6970    -3.8934 H       
@<TRIPOS>BOND
   1    1    2 1
   2    1   27 1
   3    1   28 1
   4    1   29 1
   5    2    3 1
   6    2    4 1
   7    2    5 1
   8    5   26 ar
   9    5    6 ar
  10    6    7 ar
  11    6   30 1
  12    7    8 1
  13    7   24 ar
  14    8    9 1
  15    8   31 1
  16    9   10 1
  17    9   32 1
  18    9   33 1
  19   10   19 ar
  20   10   11 ar
  21   11   12 ar
  22   11   34 1
  23   12   13 ar
  24   13   18 ar
  25   13   14 1
  26   14   15 1
  27   14   16 1
  28   16   17 2
  29   16   20 1
  30   17   18 1
  31   17   35 1
  32   18   19 ar
  33   19   36 1
  34   20   21 1
  35   20   22 1
  36   20   23 1
  37   24   25 ar
  38   25   26 ar
  39   25   37 1

#	End of record

