#	Name: ASD01880513
#	Creating user name:	WinNT
#	Creation time:	15. 06. 2019 19:40

#	Modifying user name:	WinNT
#	Modification time:	15. 06. 2019 19:40

#	Program:	/corina/corina34_cracker 3.40 0067  02.08.2006

@<TRIPOS>MOLECULE
ASD01880513
  38   40    0    0    0
SMALL
NO_CHARGES


@<TRIPOS>ATOM
   1 N1            -0.0158     1.3149     0.0093 N.ar    
   2 C2             0.0021    -0.0041     0.0020 C.ar    
   3 N3             1.1334    -0.6826    -0.0120 N.ar    
   4 C4             2.2998    -0.0570    -0.0198 C.ar    
   5 C5             2.3223     1.3279    -0.0130 C.ar    
   6 C6             1.1128     2.0081     0.0022 C.ar    
   7 C7             3.6293     2.0782    -0.0209 C.3     
   8 O8             4.7131     1.1470    -0.0354 O.3     
   9 C9             5.9684     1.6626    -0.0440 C.ar    
  10 C10            7.0693     0.8117    -0.0582 C.ar    
  11 C11            8.3385     1.3346    -0.0674 C.ar    
  12 C12            8.5334     2.7198    -0.0627 C.ar    
  13 C13            7.4242     3.5699    -0.0488 C.ar    
  14 C14            6.1531     3.0401    -0.0446 C.ar    
  15 C15            9.7121     0.7114    -0.0830 C.3     
  16 N16           10.6673     1.8253    -0.0866 N.am    
  17 C17            9.9830     2.9821    -0.0748 C.2     
  18 O18           10.4886     4.0878    -0.0746 O.2     
  19 Cl19          -1.5026    -0.8698     0.0117 Cl      
  20 Cl20           1.0794     3.7438     0.0107 Cl      
  21 C21           14.1459     1.5261    -1.5616 C.3     
  22 C22           12.6218     1.6596    -1.5473 C.3     
  23 C23           12.1266     1.6975    -0.1002 C.3     
  24 H24            3.2219    -0.6191    -0.0309 H       
  25 H25            3.6806     2.7092    -0.9082 H       
  26 H26            3.6966     2.7003     0.8716 H       
  27 H27            6.9254    -0.2587    -0.0616 H       
  28 H28            7.5638     4.6409    -0.0446 H       
  29 H29            5.2964     3.6976    -0.0342 H       
  30 H30            9.8553     0.0978     0.8064 H       
  31 H31            9.8389     0.1063    -0.9807 H       
  32 H32           14.4986     1.4991    -2.5926 H       
  33 H33           14.5901     2.3787    -1.0478 H       
  34 H34           14.4348     0.6056    -1.0544 H       
  35 H35           12.3329     2.5801    -2.0545 H       
  36 H36           12.1776     0.8070    -2.0611 H       
  37 H37           12.5708     2.5501     0.4135 H       
  38 H38           12.4155     0.7770     0.4070 H       
@<TRIPOS>BOND
   1    1    2 ar
   2    1    6 ar
   3    2    3 ar
   4    2   19 1
   5    3    4 ar
   6    4    5 ar
   7    4   24 1
   8    5    6 ar
   9    5    7 1
  10    6   20 1
  11    7    8 1
  12    7   25 1
  13    7   26 1
  14    8    9 1
  15    9   10 ar
  16    9   14 ar
  17   10   11 ar
  18   10   27 1
  19   11   12 ar
  20   11   15 1
  21   12   13 ar
  22   12   17 1
  23   13   14 ar
  24   13   28 1
  25   14   29 1
  26   15   16 1
  27   15   30 1
  28   15   31 1
  29   16   17 am
  30   16   23 1
  31   17   18 2
  32   21   22 1
  33   21   32 1
  34   21   33 1
  35   21   34 1
  36   22   23 1
  37   22   35 1
  38   22   36 1
  39   23   37 1
  40   23   38 1

#	End of record

