#	Name: ASD08390043
#	Creating user name:	WinNT
#	Creation time:	15. 06. 2019 21:19

#	Modifying user name:	WinNT
#	Modification time:	15. 06. 2019 21:19

#	Program:	/corina/corina34_cracker 3.40 0067  02.08.2006

@<TRIPOS>MOLECULE
ASD08390043
  46   48    0    0    0
SMALL
NO_CHARGES


@<TRIPOS>ATOM
   1 C1            -0.1255     1.5916     0.0320 C.3     
   2 C2            -0.0412     0.0527     0.0670 C.3     
   3 N3             1.2855     2.0057    -0.0454 N.pl3   
   4 C4             2.0656     0.8784    -0.0538 C.2     
   5 N5             1.3999    -0.2273     0.0057 N.2     
   6 C6             3.5440     0.9241    -0.1256 C.ar    
   7 C7             4.2370     2.0149     0.3986 C.ar    
   8 C8             5.6146     2.0518     0.3288 C.ar    
   9 C9             6.3083     1.0098    -0.2601 C.ar    
  10 C10            5.6264    -0.0748    -0.7823 C.ar    
  11 C11            4.2493    -0.1262    -0.7125 C.ar    
  12 C12           -0.8831     2.0550    -1.1854 C.ar    
  13 C13            1.7722     3.3862    -0.1041 C.3     
  14 C14           -2.2107     2.4240    -1.0743 C.ar    
  15 C15           -2.9057     2.8491    -2.1910 C.ar    
  16 C16           -2.2731     2.9057    -3.4188 C.ar    
  17 C17           -0.9452     2.5375    -3.5298 C.ar    
  18 C18           -0.2490     2.1166    -2.4122 C.ar    
  19 C19           -0.7458    -0.5420    -1.1251 C.2     
  20 O20           -1.9062    -0.8679    -1.0404 O.2     
  21 O21           -0.0843    -0.7096    -2.2809 O.3     
  22 C22            1.8772     3.9418     1.2928 C.2     
  23 O23            1.5762     3.2550     2.2402 O.2     
  24 O24            2.3049     5.1996     1.4845 O.3     
  25 C25            2.3810     5.6680     2.8567 C.3     
  26 C26           -0.6406    -0.4877     1.3669 C.3     
  27 H27           -0.5886     1.9721     0.9424 H       
  28 H28            3.6965     2.8293     0.8580 H       
  29 H29            6.1524     2.8960     0.7344 H       
  30 H30            7.3865     1.0433    -0.3128 H       
  31 H31            6.1734    -0.8851    -1.2412 H       
  32 H32            3.7180    -0.9735    -1.1201 H       
  33 H33            2.7539     3.4055    -0.5775 H       
  34 H34            1.0769     3.9923    -0.6849 H       
  35 H35           -2.7050     2.3799    -0.1151 H       
  36 H36           -3.9431     3.1368    -2.1044 H       
  37 H37           -2.8163     3.2371    -4.2915 H       
  38 H38           -0.4511     2.5814    -4.4891 H       
  39 H39            0.7884     1.8290    -2.4989 H       
  40 H40           -0.5783    -1.0949    -3.0176 H       
  41 H41            1.3914     5.6228     3.3115 H       
  42 H42            3.0684     5.0360     3.4189 H       
  43 H43            2.7402     6.6971     2.8700 H       
  44 H44           -1.6865    -0.1888     1.4365 H       
  45 H45           -0.5723    -1.5755     1.3738 H       
  46 H46           -0.0899    -0.0837     2.2164 H       
@<TRIPOS>BOND
   1    1    2 1
   2    1    3 1
   3    1   12 1
   4    1   27 1
   5    2   19 1
   6    2   26 1
   7    2    5 1
   8    3    4 1
   9    3   13 1
  10    4    5 2
  11    4    6 1
  12    6    7 ar
  13    6   11 ar
  14    7    8 ar
  15    7   28 1
  16    8    9 ar
  17    8   29 1
  18    9   10 ar
  19    9   30 1
  20   10   11 ar
  21   10   31 1
  22   11   32 1
  23   12   14 ar
  24   12   18 ar
  25   13   22 1
  26   13   33 1
  27   13   34 1
  28   14   15 ar
  29   14   35 1
  30   15   16 ar
  31   15   36 1
  32   16   17 ar
  33   16   37 1
  34   17   18 ar
  35   17   38 1
  36   18   39 1
  37   19   20 2
  38   19   21 1
  39   21   40 1
  40   22   23 2
  41   22   24 1
  42   24   25 1
  43   25   41 1
  44   25   42 1
  45   25   43 1
  46   26   44 1
  47   26   45 1
  48   26   46 1

#	End of record

