#	Name: ASD01882909
#	Creating user name:	WinNT
#	Creation time:	15. 06. 2019 19:45

#	Modifying user name:	WinNT
#	Modification time:	15. 06. 2019 19:45

#	Program:	/corina/corina34_cracker 3.40 0067  02.08.2006

@<TRIPOS>MOLECULE
ASD01882909
  56   59    0    0    0
SMALL
NO_CHARGES


@<TRIPOS>ATOM
   1 C1            -0.0179     1.3315    -0.0628 C.2     
   2 N2            -0.0047     0.0076     0.0141 N.2     
   3 C3             1.1427    -0.6755     0.0816 C.2     
   4 C4             2.3762     0.0236     0.0713 C.2     
   5 C5             2.3498     1.3706    -0.0072 C.2     
   6 N6             1.1485     2.0190    -0.0740 N.pl3   
   7 O7            -1.0980     2.1392    -0.1414 O.3     
   8 C8             0.8594     3.4603    -0.1644 C.3     
   9 C9            -0.6770     3.5282    -0.2091 C.3     
  10 O10            1.1284    -1.8949     0.1521 O.2     
  11 C11            3.6366     2.1548    -0.0206 C.3     
  12 C12            3.9608     2.6271     1.3981 C.3     
  13 C13            4.7707     1.2651    -0.5336 C.3     
  14 O14            3.4948     3.2882    -0.8793 O.3     
  15 C15           -1.1429     4.1655    -1.5197 C.3     
  16 O16           -2.5696     4.2444    -1.5303 O.3     
  17 C17           -3.1493     4.7898    -2.6319 C.ar    
  18 C18           -4.5303     4.8974    -2.7091 C.ar    
  19 C19           -5.1171     5.4521    -3.8300 C.ar    
  20 C20           -4.3292     5.8999    -4.8743 C.ar    
  21 C21           -2.9527     5.7933    -4.8000 C.ar    
  22 C22           -2.3608     5.2450    -3.6786 C.ar    
  23 C23           -4.9720     6.5046    -6.0959 C.3     
  24 C24           -4.4795     7.9424    -6.2724 C.3     
  25 C25           -5.1321     8.5564    -7.5126 C.3     
  26 C26           -4.7567     7.7335    -8.7467 C.3     
  27 C27           -5.2492     6.2957    -8.5701 C.3     
  28 C28           -4.5966     5.6818    -7.3299 C.3     
  29 H29            3.3142    -0.5089     0.1253 H       
  30 H30            1.2417     3.9826     0.7126 H       
  31 H31            1.2854     3.8792    -1.0760 H       
  32 H32           -1.0618     4.0855     0.6450 H       
  33 H33            4.0690     1.7626     2.0530 H       
  34 H34            4.8916     3.1943     1.3884 H       
  35 H35            3.1529     3.2610     1.7635 H       
  36 H36            4.5398     0.9286    -1.5443 H       
  37 H37            5.7015     1.8323    -0.5433 H       
  38 H38            4.8789     0.4006     0.1214 H       
  39 H39            3.3687     3.0624    -1.8110 H       
  40 H40           -0.7229     5.1677    -1.6058 H       
  41 H41           -0.8063     3.5573    -2.3593 H       
  42 H42           -5.1461     4.5475    -1.8938 H       
  43 H43           -6.1921     5.5359    -3.8907 H       
  44 H44           -2.3395     6.1431    -5.6173 H       
  45 H45           -1.2853     5.1664    -3.6189 H       
  46 H46           -6.0552     6.5039    -5.9744 H       
  47 H47           -4.7470     8.5286    -5.3932 H       
  48 H48           -3.3963     7.9431    -6.3938 H       
  49 H49           -6.2153     8.5557    -7.3912 H       
  50 H50           -4.7812     9.5806    -7.6384 H       
  51 H51           -5.2216     8.1709    -9.6302 H       
  52 H52           -3.6735     7.7342    -8.8681 H       
  53 H53           -6.3324     6.2951    -8.4487 H       
  54 H54           -4.9817     5.7095    -9.4493 H       
  55 H55           -3.5134     5.6825    -7.4513 H       
  56 H56           -4.9475     4.6575    -7.2041 H       
@<TRIPOS>BOND
   1    1    2 2
   2    1    6 1
   3    1    7 1
   4    2    3 1
   5    3    4 1
   6    3   10 2
   7    4    5 2
   8    4   29 1
   9    5    6 1
  10    5   11 1
  11    6    8 1
  12    7    9 1
  13    8    9 1
  14    8   30 1
  15    8   31 1
  16    9   15 1
  17    9   32 1
  18   11   12 1
  19   11   13 1
  20   11   14 1
  21   12   33 1
  22   12   34 1
  23   12   35 1
  24   13   36 1
  25   13   37 1
  26   13   38 1
  27   14   39 1
  28   15   16 1
  29   15   40 1
  30   15   41 1
  31   16   17 1
  32   17   18 ar
  33   17   22 ar
  34   18   19 ar
  35   18   42 1
  36   19   20 ar
  37   19   43 1
  38   20   21 ar
  39   20   23 1
  40   21   22 ar
  41   21   44 1
  42   22   45 1
  43   23   24 1
  44   23   28 1
  45   23   46 1
  46   24   25 1
  47   24   47 1
  48   24   48 1
  49   25   26 1
  50   25   49 1
  51   25   50 1
  52   26   27 1
  53   26   51 1
  54   26   52 1
  55   27   28 1
  56   27   53 1
  57   27   54 1
  58   28   55 1
  59   28   56 1

#	End of record

