#	Name: ASD00960237
#	Creating user name:	WinNT
#	Creation time:	15. 06. 2019 18:53

#	Modifying user name:	WinNT
#	Modification time:	15. 06. 2019 18:53

#	Program:	/corina/corina34_cracker 3.40 0067  02.08.2006

@<TRIPOS>MOLECULE
ASD00960237
  35   37    0    0    0
SMALL
NO_CHARGES


@<TRIPOS>ATOM
   1 C1            -0.0167     1.3811     0.0096 C.2     
   2 N2             2.1182     0.7215    -0.0143 N.pl3   
   3 C3             1.3299    -0.4046    -0.0128 C.2     
   4 C4             0.0021    -0.0041     0.0020 C.2     
   5 N5             3.5111     0.5651    -0.0288 N.2     
   6 C6             4.0364    -0.6398    -0.0407 C.2     
   7 N7             3.2777    -1.7429    -0.0398 N.2     
   8 C8             1.9605    -1.6742    -0.0252 C.2     
   9 N9             1.2026    -2.8288    -0.0243 N.pl3   
  10 C10            1.3026     1.8202    -0.0006 C.2     
  11 C11            5.5108    -0.7812    -0.0560 C.2     
  12 O12            6.2925     0.3156    -0.0575 O.3     
  13 O13            6.0147    -1.8860    -0.0670 O.2     
  14 C14            1.7422     3.2142     0.0023 C.2     
  15 O15            0.9203     4.1112     0.0150 O.2     
  16 O16            3.0596     3.5062    -0.0092 O.3     
  17 C17            3.4174     4.8897    -0.0056 C.3     
  18 C18            4.9187     5.0203    -0.0197 C.ar    
  19 C19            5.5954     5.0863    -1.2233 C.ar    
  20 C20            6.9725     5.2061    -1.2362 C.ar    
  21 C21            7.6728     5.2602    -0.0456 C.ar    
  22 C22            6.9960     5.1951     1.1580 C.ar    
  23 C23            5.6185     5.0797     1.1709 C.ar    
  24 H24           -0.8969     2.0068     0.0174 H       
  25 H25           -0.8605    -0.6540     0.0068 H       
  26 H26            1.6386    -3.6953    -0.0344 H       
  27 H27            0.2342    -2.7733    -0.0136 H       
  28 H28            7.2489     0.1730    -0.0677 H       
  29 H29            3.0022     5.3747    -0.8891 H       
  30 H30            3.0197     5.3655     0.8908 H       
  31 H31            5.0483     5.0440    -2.1535 H       
  32 H32            7.5013     5.2570    -2.1765 H       
  33 H33            8.7488     5.3530    -0.0557 H       
  34 H34            7.5431     5.2370     2.0882 H       
  35 H35            5.0894     5.0326     2.1112 H       
@<TRIPOS>BOND
   1    1    4 1
   2    1   10 2
   3    1   24 1
   4    2    3 1
   5    2    5 1
   6    2   10 1
   7    3    4 2
   8    3    8 1
   9    4   25 1
  10    5    6 2
  11    6    7 1
  12    6   11 1
  13    7    8 2
  14    8    9 1
  15    9   26 1
  16    9   27 1
  17   10   14 1
  18   11   12 1
  19   11   13 2
  20   12   28 1
  21   14   15 2
  22   14   16 1
  23   16   17 1
  24   17   18 1
  25   17   29 1
  26   17   30 1
  27   18   19 ar
  28   18   23 ar
  29   19   20 ar
  30   19   31 1
  31   20   21 ar
  32   20   32 1
  33   21   22 ar
  34   21   33 1
  35   22   23 ar
  36   22   34 1
  37   23   35 1

#	End of record

