#	Name: ASD04910074
#	Creating user name:	WinNT
#	Creation time:	15. 06. 2019 20:55

#	Modifying user name:	WinNT
#	Modification time:	15. 06. 2019 20:55

#	Program:	/corina/corina34_cracker 3.40 0067  02.08.2006

@<TRIPOS>MOLECULE
ASD04910074
  16   16    0    0    0
SMALL
NO_CHARGES


@<TRIPOS>ATOM
   1 C1            -0.0179     1.4713     0.0101 C.ar    
   2 C2             0.0021    -0.0041     0.0020 C.ar    
   3 C3             1.2014    -0.6449    -0.0129 C.ar    
   4 C4             2.3951     0.0692    -0.0200 C.ar    
   5 C5             2.4244     1.4598    -0.0128 C.ar    
   6 C6             1.2737     2.1845     0.0016 C.ar    
   7 N7             3.6747    -0.6743    -0.0352 N.pl3   
   8 O8             3.6710    -1.9913    -0.0418 O.2     
   9 O9             4.8171    -0.0190    -0.0421 O.2     
  10 N10           -1.1492     2.1286     0.0191 N.2     
  11 N11           -1.1461     3.2526     0.0252 N.1     
  12 N12           -1.1429     4.3765     0.0313 N.pl3   
  13 H13           -0.9204    -0.5657     0.0082 H       
  14 H14            1.2275    -1.7246    -0.0189 H       
  15 H15            3.3753     1.9718    -0.0184 H       
  16 H16            1.3048     3.2640     0.0068 H       
@<TRIPOS>BOND
   1    1    2 ar
   2    1    6 ar
   3    1   10 1
   4    2    3 ar
   5    2   13 1
   6    3    4 ar
   7    3   14 1
   8    4    5 ar
   9    4    7 1
  10    5    6 ar
  11    5   15 1
  12    6   16 1
  13    7    8 2
  14    7    9 2
  15   10   11 2
  16   11   12 2

#	End of record

