#	Name: ASD01814041
#	Creating user name:	WinNT
#	Creation time:	15. 06. 2019 19:31

#	Modifying user name:	WinNT
#	Modification time:	15. 06. 2019 19:31

#	Program:	/corina/corina34_cracker 3.40 0067  02.08.2006

@<TRIPOS>MOLECULE
ASD01814041
  51   54    0    0    0
SMALL
NO_CHARGES


@<TRIPOS>ATOM
   1 C1            -0.5550     0.7242     0.2432 C.ar    
   2 C2            -0.2946    -0.6373     0.2290 C.ar    
   3 C3             0.9980    -1.1072     0.1358 C.ar    
   4 C4             2.0606    -0.2122     0.0539 C.ar    
   5 C5             1.7971     1.1686     0.0677 C.ar    
   6 C6             0.4826     1.6318     0.1632 C.ar    
   7 N7             3.3569    -0.6713    -0.0392 N.pl3   
   8 C8             4.4130     0.1486    -0.1194 C.2     
   9 C9             4.2795     1.5222    -0.1151 C.2     
  10 C10            2.9311     2.1054    -0.0196 C.2     
  11 F11            0.2282     2.9586     0.1765 F       
  12 O12            2.7601     3.3120    -0.0122 O.2     
  13 C13            5.4636     2.3881    -0.2039 C.2     
  14 O14            5.3202     3.7285    -0.1987 O.3     
  15 O15            6.5723     1.8957    -0.2819 O.2     
  16 C16            3.5895    -2.1176    -0.0505 C.3     
  17 C17            3.5655    -2.6192    -1.4713 C.ar    
  18 C18            4.7345    -2.6584    -2.2090 C.ar    
  19 C19            4.7158    -3.1176    -3.5115 C.ar    
  20 C20            3.5215    -3.5406    -4.0799 C.ar    
  21 C21            2.3493    -3.5004    -3.3363 C.ar    
  22 C22            2.3756    -3.0447    -2.0328 C.ar    
  23 N23            3.4991    -4.0059    -5.3993 N.am    
  24 C24            4.5417    -4.7094    -5.8836 C.2     
  25 C25            4.4740    -5.3003    -7.2683 C.3     
  26 O26            5.5346    -4.8668    -5.2050 O.2     
  27 C27            5.7792    -6.0509    -7.5855 C.3     
  28 C28            5.3905    -7.5215    -7.8426 C.3     
  29 C29            3.9013    -7.4529    -8.2629 C.3     
  30 C30            3.3376    -6.3409    -7.3437 C.3     
  31 H31           -1.5736     1.0763     0.3126 H       
  32 H32           -1.1140    -1.3380     0.2922 H       
  33 H33            1.1862    -2.1706     0.1265 H       
  34 H34            5.4020    -0.2796    -0.1894 H       
  35 H35            6.1280     4.2567    -0.2590 H       
  36 H36            4.5610    -2.3328     0.3944 H       
  37 H37            2.8085    -2.6157     0.5239 H       
  38 H38            5.6630    -2.3293    -1.7664 H       
  39 H39            5.6290    -3.1473    -4.0873 H       
  40 H40            1.4189    -3.8287    -3.7755 H       
  41 H41            1.4644    -3.0135    -1.4538 H       
  42 H42            2.7332    -3.8222    -5.9655 H       
  43 H43            4.3087    -4.5120    -8.0027 H       
  44 H44            6.2469    -5.6275    -8.4743 H       
  45 H45            6.4617    -5.9878    -6.7379 H       
  46 H46            5.9949    -7.9408    -8.6469 H       
  47 H47            5.5033    -8.1106    -6.9325 H       
  48 H48            3.8085    -7.1710    -9.3117 H       
  49 H49            3.4017    -8.4025    -8.0713 H       
  50 H50            3.1189    -6.7393    -6.3530 H       
  51 H51            2.4439    -5.8986    -7.7839 H       
@<TRIPOS>BOND
   1    1    2 ar
   2    1    6 ar
   3    1   31 1
   4    2    3 ar
   5    2   32 1
   6    3    4 ar
   7    3   33 1
   8    4    5 ar
   9    4    7 1
  10    5    6 ar
  11    5   10 1
  12    6   11 1
  13    7    8 1
  14    7   16 1
  15    8    9 2
  16    8   34 1
  17    9   10 1
  18    9   13 1
  19   10   12 2
  20   13   14 1
  21   13   15 2
  22   14   35 1
  23   16   17 1
  24   16   36 1
  25   16   37 1
  26   17   18 ar
  27   17   22 ar
  28   18   19 ar
  29   18   38 1
  30   19   20 ar
  31   19   39 1
  32   20   21 ar
  33   20   23 1
  34   21   22 ar
  35   21   40 1
  36   22   41 1
  37   23   24 am
  38   23   42 1
  39   24   25 1
  40   24   26 2
  41   25   27 1
  42   25   30 1
  43   25   43 1
  44   27   28 1
  45   27   44 1
  46   27   45 1
  47   28   29 1
  48   28   46 1
  49   28   47 1
  50   29   30 1
  51   29   48 1
  52   29   49 1
  53   30   50 1
  54   30   51 1

#	End of record

