#	Name: ASD08120002
#	Creating user name:	WinNT
#	Creation time:	15. 06. 2019 21:15

#	Modifying user name:	WinNT
#	Modification time:	15. 06. 2019 21:15

#	Program:	/corina/corina34_cracker 3.40 0067  02.08.2006

@<TRIPOS>MOLECULE
ASD08120002
  37   39    0    0    0
SMALL
NO_CHARGES


@<TRIPOS>ATOM
   1 C1            -0.0124     1.2598     0.7118 C.ar    
   2 C2            -1.1283     1.5648     1.4696 C.ar    
   3 C3            -2.3186     0.9010     1.2470 C.ar    
   4 C4            -2.3945    -0.0737     0.2601 C.ar    
   5 C5            -1.2718    -0.3773    -0.4997 C.ar    
   6 C6            -0.0858     0.2937    -0.2750 C.ar    
   7 S7             1.5043     2.1092     0.9992 S.o2    
   8 N8            -3.5974    -0.7477     0.0324 N.pl3   
   9 C9            -4.8029    -0.0740     0.1526 C.2     
  10 N10           -5.9771    -0.6204     0.0792 N.2     
  11 C11           -7.0267     0.1875     0.2197 C.2     
  12 C12           -6.7312     1.4831     0.4224 C.2     
  13 S13           -4.9777     1.6550     0.4363 S.3     
  14 C14           -8.4233    -0.3075     0.1565 C.ar    
  15 C15           -8.6766    -1.6617    -0.0559 C.ar    
  16 C16           -9.9782    -2.1166    -0.1138 C.ar    
  17 C17          -11.0305    -1.2315     0.0380 C.ar    
  18 C18          -10.7850     0.1135     0.2485 C.ar    
  19 C19           -9.4875     0.5787     0.3149 C.ar    
  20 N20            2.3428     1.2442     2.1356 N.am    
  21 O21            2.2507     2.0168    -0.2065 O.2     
  22 O22            1.1622     3.3464     1.6087 O.2     
  23 N23          -12.4248    -1.7257    -0.0257 N.pl3   
  24 O24          -12.6436    -2.9094    -0.2114 O.2     
  25 O25          -13.3531    -0.9484     0.1077 O.2     
  26 H26           -1.0686     2.3227     2.2367 H       
  27 H27           -3.1895     1.1392     1.8397 H       
  28 H28           -1.3272    -1.1348    -1.2675 H       
  29 H29            0.7874     0.0582    -0.8653 H       
  30 H30           -3.5888    -1.6870    -0.2098 H       
  31 H31           -7.4461     2.2813     0.5575 H       
  32 H32           -7.8559    -2.3534    -0.1753 H       
  33 H33          -10.1757    -3.1656    -0.2784 H       
  34 H34          -11.6104     0.8001     0.3657 H       
  35 H35           -9.2970     1.6289     0.4797 H       
  36 H36            3.3128     1.2524     2.1329 H       
  37 H37            1.8639     0.7295     2.8038 H       
@<TRIPOS>BOND
   1    1    2 ar
   2    1    7 1
   3    1    6 ar
   4    2    3 ar
   5    2   26 1
   6    3    4 ar
   7    3   27 1
   8    4    5 ar
   9    4    8 1
  10    5    6 ar
  11    5   28 1
  12    6   29 1
  13    7   20 am
  14    7   21 2
  15    7   22 2
  16    8    9 1
  17    8   30 1
  18    9   10 2
  19    9   13 1
  20   10   11 1
  21   11   12 2
  22   11   14 1
  23   12   13 1
  24   12   31 1
  25   14   15 ar
  26   14   19 ar
  27   15   16 ar
  28   15   32 1
  29   16   17 ar
  30   16   33 1
  31   17   18 ar
  32   17   23 1
  33   18   19 ar
  34   18   34 1
  35   19   35 1
  36   20   36 1
  37   20   37 1
  38   23   24 2
  39   23   25 2

#	End of record

