#	Name: ASD03091903
#	Creating user name:	WinNT
#	Creation time:	15. 06. 2019 20:31

#	Modifying user name:	WinNT
#	Modification time:	15. 06. 2019 20:31

#	Program:	/corina/corina34_cracker 3.40 0067  02.08.2006

@<TRIPOS>MOLECULE
ASD03091903
  24   24    0    0    0
SMALL
NO_CHARGES


@<TRIPOS>ATOM
   1 O1             0.0021    -0.0041     0.0020 O.2     
   2 C2            -0.0144     1.2129     0.0087 C.2     
   3 N3             1.1435     1.9026     0.0014 N.am    
   4 C4             2.4220     1.1874    -0.0147 C.3     
   5 C5             3.5712     2.1974    -0.0202 C.3     
   6 C6             4.9064     1.4505    -0.0370 C.3     
   7 O7             5.9799     2.3938    -0.0422 O.3     
   8 C8            -1.2936     1.9285     0.0187 C.2     
   9 C9            -2.5483     1.3553     0.0215 C.2     
  10 C10           -3.4778     2.3995     0.0316 C.2     
  11 Br11          -5.3597     2.2147     0.0400 Br      
  12 C12           -2.7901     3.5689     0.0347 C.2     
  13 Br13          -3.5581     5.2969     0.0486 Br      
  14 N14           -1.4615     3.2957     0.0329 N.pl3   
  15 H15            1.1303     2.8725     0.0067 H       
  16 H16            2.4967     0.5569     0.8712 H       
  17 H17            2.4797     0.5664    -0.9086 H       
  18 H18            3.4965     2.8280    -0.9062 H       
  19 H19            3.5135     2.8184     0.8737 H       
  20 H20            4.9812     0.8199     0.8489 H       
  21 H21            4.9642     0.8295    -0.9309 H       
  22 H22            6.8584     1.9899    -0.0527 H       
  23 H23           -2.7707     0.2984     0.0163 H       
  24 H24           -0.7486     3.9534     0.0384 H       
@<TRIPOS>BOND
   1    1    2 2
   2    2    3 am
   3    2    8 1
   4    3    4 1
   5    3   15 1
   6    4    5 1
   7    4   16 1
   8    4   17 1
   9    5    6 1
  10    5   18 1
  11    5   19 1
  12    6    7 1
  13    6   20 1
  14    6   21 1
  15    7   22 1
  16    8    9 2
  17    8   14 1
  18    9   10 1
  19    9   23 1
  20   10   11 1
  21   10   12 2
  22   12   13 1
  23   12   14 1
  24   14   24 1

#	End of record

