#	Name: ASD04590794
#	Creating user name:	WinNT
#	Creation time:	15. 06. 2019 20:51

#	Modifying user name:	WinNT
#	Modification time:	15. 06. 2019 20:51

#	Program:	/corina/corina34_cracker 3.40 0067  02.08.2006

@<TRIPOS>MOLECULE
ASD04590794
  40   42    0    0    0
SMALL
NO_CHARGES


@<TRIPOS>ATOM
   1 N1            -0.0179     1.4661     0.0101 N.3     
   2 C2             0.0021    -0.0041     0.0020 C.3     
   3 C3             0.7517    -0.4916    -1.2407 C.3     
   4 O4             2.0682     0.0669    -1.2476 O.3     
   5 C5             2.0869     1.4971    -1.2404 C.3     
   6 C6             1.3489     2.0053    -0.0001 C.3     
   7 C7             1.2950     3.5345    -0.0263 C.3     
   8 C8             0.6086     4.0375     1.2458 C.3     
   9 N9             1.3555     3.5742     2.4222 N.3     
  10 C10            1.3789     2.1078     2.4938 C.3     
  11 C11            2.0885     1.5469     1.2591 C.3     
  12 C12            0.8065     4.1528     3.6558 C.3     
  13 C13            1.4285     3.4743     4.8491 C.ar    
  14 C14            2.5898     3.9789     5.4036 C.ar    
  15 C15            3.1604     3.3565     6.4981 C.ar    
  16 C16            2.5693     2.2297     7.0384 C.ar    
  17 C17            1.4075     1.7256     6.4844 C.ar    
  18 C18            0.8346     2.3506     5.3925 C.ar    
  19 H19           -0.5538     1.8247    -0.7659 H       
  20 H20            0.5074    -0.3662     0.8973 H       
  21 H21           -1.0202    -0.3819    -0.0179 H       
  22 H22            0.8180    -1.5794    -1.2223 H       
  23 H23            0.2171    -0.1742    -2.1360 H       
  24 H24            3.1188     1.8476    -1.2190 H       
  25 H25            1.5930     1.8721    -2.1368 H       
  26 H26            2.3082     3.9336    -0.0753 H       
  27 H27            0.7309     3.8638    -0.8988 H       
  28 H28            0.5827     5.1272     1.2380 H       
  29 H29           -0.4096     3.6504     1.2865 H       
  30 H30            1.9123     1.7964     3.3919 H       
  31 H31            0.3573     1.7295     2.5287 H       
  32 H32            2.0905     0.4578     1.3038 H       
  33 H33            3.1149     1.9126     1.2317 H       
  34 H34            1.0292     5.2194     3.6874 H       
  35 H35           -0.2734     4.0064     3.6766 H       
  36 H36            3.0516     4.8593     4.9815 H       
  37 H37            4.0681     3.7503     6.9309 H       
  38 H38            3.0154     1.7430     7.8930 H       
  39 H39            0.9459     0.8450     6.9063 H       
  40 H40           -0.0752     1.9589     4.9620 H       
@<TRIPOS>BOND
   1    1    2 1
   2    1    6 1
   3    1   19 1
   4    2    3 1
   5    2   20 1
   6    2   21 1
   7    3    4 1
   8    3   22 1
   9    3   23 1
  10    4    5 1
  11    5    6 1
  12    5   24 1
  13    5   25 1
  14    6    7 1
  15    6   11 1
  16    7    8 1
  17    7   26 1
  18    7   27 1
  19    8    9 1
  20    8   28 1
  21    8   29 1
  22    9   10 1
  23    9   12 1
  24   10   11 1
  25   10   30 1
  26   10   31 1
  27   11   32 1
  28   11   33 1
  29   12   13 1
  30   12   34 1
  31   12   35 1
  32   13   14 ar
  33   13   18 ar
  34   14   15 ar
  35   14   36 1
  36   15   16 ar
  37   15   37 1
  38   16   17 ar
  39   16   38 1
  40   17   18 ar
  41   17   39 1
  42   18   40 1

#	End of record

