#	Name: ASD01152577
#	Creating user name:	WinNT
#	Creation time:	15. 06. 2019 19:06

#	Modifying user name:	WinNT
#	Modification time:	15. 06. 2019 19:06

#	Program:	/corina/corina34_cracker 3.40 0067  02.08.2006

@<TRIPOS>MOLECULE
ASD01152577
  45   47    0    0    0
SMALL
NO_CHARGES


@<TRIPOS>ATOM
   1 C1             0.4612     1.1162     0.7536 C.2     
   2 N2             0.3476    -0.1613     0.5715 N.2     
   3 N3            -0.8546    -0.8214     0.3366 N.am    
   4 C4            -2.0328    -0.1677     0.2772 C.2     
   5 C5            -2.0228     1.3354     0.4762 C.3     
   6 C6            -0.6696     1.9717     0.7329 C.2     
   7 C7            -2.9293     1.6630     1.6644 C.3     
   8 O8            -0.5581     3.1682     0.9049 O.2     
   9 Br9            2.1737     1.8566     1.0618 Br      
  10 C10           -0.8407    -2.2093     0.1557 C.ar    
  11 O11           -3.0681    -0.7636     0.0705 O.2     
  12 C12           -3.0400     3.1585     1.8145 C.ar    
  13 C13           -1.7312    -3.0100     0.8565 C.ar    
  14 C14            0.0611    -2.7863    -0.7303 C.ar    
  15 C15            0.0750    -4.1558    -0.9097 C.ar    
  16 C16           -0.8070    -4.9564    -0.2093 C.ar    
  17 C17           -1.7145    -4.3855     0.6739 C.ar    
  18 C18           -4.0423     3.8468     1.1568 C.ar    
  19 C19           -2.1428     3.8412     2.6143 C.ar    
  20 C20           -2.2443     5.2129     2.7520 C.ar    
  21 C21           -4.1438     5.2185     1.2944 C.ar    
  22 C22           -3.2429     5.9020     2.0894 C.ar    
  23 C23           -3.3539     7.3973     2.2399 C.3     
  24 N24           -2.6111    -5.1964     1.3785 N.am    
  25 C25           -2.2268    -6.4173     1.8007 C.2     
  26 O26           -1.1336    -6.8471     1.4986 O.2     
  27 C27           -3.1554    -7.2483     2.6481 C.3     
  28 H28           -2.4544     1.7971    -0.4119 H       
  29 H29           -3.9195     1.2407     1.4933 H       
  30 H30           -2.5048     1.2371     2.5735 H       
  31 H31           -2.4355    -2.5637     1.5429 H       
  32 H32            0.7515    -2.1632    -1.2794 H       
  33 H33            0.7766    -4.6018    -1.5991 H       
  34 H34           -0.7938    -6.0268    -0.3520 H       
  35 H35           -4.7458     3.3129     0.5351 H       
  36 H36           -1.3626     3.3028     3.1320 H       
  37 H37           -1.5438     5.7462     3.3774 H       
  38 H38           -4.9267     5.7563     0.7802 H       
  39 H39           -2.7573     7.8853     1.4692 H       
  40 H40           -4.3969     7.6965     2.1358 H       
  41 H41           -2.9879     7.6917     3.2235 H       
  42 H42           -3.5093    -4.8799     1.5630 H       
  43 H43           -4.0772    -7.4380     2.0982 H       
  44 H44           -2.6753    -8.1964     2.8906 H       
  45 H45           -3.3853    -6.7117     3.5686 H       
@<TRIPOS>BOND
   1    1    2 2
   2    1    9 1
   3    1    6 1
   4    2    3 1
   5    3    4 am
   6    3   10 1
   7    4    5 1
   8    4   11 2
   9    5    6 1
  10    5    7 1
  11    5   28 1
  12    6    8 2
  13    7   12 1
  14    7   29 1
  15    7   30 1
  16   10   13 ar
  17   10   14 ar
  18   12   18 ar
  19   12   19 ar
  20   13   17 ar
  21   13   31 1
  22   14   15 ar
  23   14   32 1
  24   15   16 ar
  25   15   33 1
  26   16   17 ar
  27   16   34 1
  28   17   24 1
  29   18   21 ar
  30   18   35 1
  31   19   20 ar
  32   19   36 1
  33   20   22 ar
  34   20   37 1
  35   21   22 ar
  36   21   38 1
  37   22   23 1
  38   23   39 1
  39   23   40 1
  40   23   41 1
  41   24   25 am
  42   24   42 1
  43   25   26 2
  44   25   27 1
  45   27   43 1
  46   27   44 1
  47   27   45 1

#	End of record

