#	Name: ASD01882024
#	Creating user name:	WinNT
#	Creation time:	15. 06. 2019 19:43

#	Modifying user name:	WinNT
#	Modification time:	15. 06. 2019 19:43

#	Program:	/corina/corina34_cracker 3.40 0067  02.08.2006

@<TRIPOS>MOLECULE
ASD01882024
  55   59    0    0    0
SMALL
NO_CHARGES


@<TRIPOS>ATOM
   1 C1            -0.0161     1.3337     0.0094 C.2     
   2 N2             0.0021    -0.0041     0.0020 N.am    
   3 C3             1.2613    -0.4841    -0.0126 C.2     
   4 C4             2.1640     0.7337    -0.0147 C.3     
   5 N5             1.2200     1.8645     0.0004 N.am    
   6 O6            -1.0354     1.9955     0.0180 O.2     
   7 O7             1.6013    -1.6477    -0.0215 O.2     
   8 C8             3.0460     0.7520     1.2354 C.3     
   9 C9             3.0220     0.7655    -1.2811 C.3     
  10 C10           -1.1986    -0.8435     0.0097 C.3     
  11 C11            1.5609     3.2893     0.0041 C.3     
  12 C12            1.6916     3.7708     1.4261 C.ar    
  13 C13            2.9179     3.7119     2.0633 C.ar    
  14 C14            3.0436     4.1523     3.3663 C.ar    
  15 C15            1.9303     4.6571     4.0391 C.ar    
  16 C16            0.6977     4.7135     3.3908 C.ar    
  17 C17            0.5860     4.2753     2.0868 C.ar    
  18 C18            2.2789     6.7390     9.3442 C.2     
  19 N19            1.6845     7.9356     9.1984 N.am    
  20 C20            1.2664     8.0881     7.8003 C.3     
  21 C21            1.6824     6.8210     7.0951 C.ar    
  22 C22            1.5628     6.3859     5.7986 C.ar    
  23 C23            2.0578     5.1311     5.4380 C.ar    
  24 C24            2.6722     4.3236     6.3958 C.ar    
  25 C25            2.7920     4.7601     7.6955 C.ar    
  26 C26            2.2972     6.0160     8.0592 C.ar    
  27 O27            2.7404     6.3152    10.3860 O.2     
  28 C28            1.4864     8.9247    10.2608 C.3     
  29 C29            0.6554     8.5016    11.4738 C.3     
  30 C30            2.1710     8.6652    11.6042 C.3     
  31 Cl31           4.5830     4.0773     4.1653 Cl      
  32 H32            3.6824    -0.1329     1.2441 H       
  33 H33            3.6682     1.6470     1.2280 H       
  34 H34            2.4158     0.7550     2.1247 H       
  35 H35            2.3749     0.7780    -2.1581 H       
  36 H36            3.6443     1.6604    -1.2759 H       
  37 H37            3.6580    -0.1191    -1.3114 H       
  38 H38           -2.0851    -0.2094     0.0217 H       
  39 H39           -1.2108    -1.4683    -0.8833 H       
  40 H40           -1.1931    -1.4772     0.8965 H       
  41 H41            2.5060     3.4381    -0.5182 H       
  42 H42            0.7749     3.8522    -0.4994 H       
  43 H43            3.7784     3.3205     1.5411 H       
  44 H44           -0.1674     5.1033     3.9065 H       
  45 H45           -0.3679     4.3225     1.5825 H       
  46 H46            0.1847     8.2103     7.7440 H       
  47 H47            1.7649     8.9474     7.3518 H       
  48 H48            1.0862     7.0125     5.0593 H       
  49 H49            3.0546     3.3530     6.1165 H       
  50 H50            3.2681     4.1325     8.4343 H       
  51 H51            1.4028     9.9598     9.9297 H       
  52 H52            0.0255     9.2585    11.9411 H       
  53 H53            0.2562     7.4874    11.4814 H       
  54 H54            2.7689     7.7586    11.6976 H       
  55 H55            2.5382     9.5298    12.1572 H       
@<TRIPOS>BOND
   1    1    2 am
   2    1    5 am
   3    1    6 2
   4    2    3 am
   5    2   10 1
   6    3    4 1
   7    3    7 2
   8    4    5 1
   9    4    8 1
  10    4    9 1
  11    5   11 1
  12    8   32 1
  13    8   33 1
  14    8   34 1
  15    9   35 1
  16    9   36 1
  17    9   37 1
  18   10   38 1
  19   10   39 1
  20   10   40 1
  21   11   12 1
  22   11   41 1
  23   11   42 1
  24   12   13 ar
  25   12   17 ar
  26   13   14 ar
  27   13   43 1
  28   14   15 ar
  29   14   31 1
  30   15   16 ar
  31   15   23 1
  32   16   17 ar
  33   16   44 1
  34   17   45 1
  35   18   19 am
  36   18   26 1
  37   18   27 2
  38   19   20 1
  39   19   28 1
  40   20   21 1
  41   20   46 1
  42   20   47 1
  43   21   22 ar
  44   21   26 ar
  45   22   23 ar
  46   22   48 1
  47   23   24 ar
  48   24   25 ar
  49   24   49 1
  50   25   26 ar
  51   25   50 1
  52   28   29 1
  53   28   30 1
  54   28   51 1
  55   29   30 1
  56   29   52 1
  57   29   53 1
  58   30   54 1
  59   30   55 1

#	End of record

