#	Name: ASD09116245
#	Creating user name:	WinNT
#	Creation time:	15. 06. 2019 21:21

#	Modifying user name:	WinNT
#	Modification time:	15. 06. 2019 21:21

#	Program:	/corina/corina34_cracker 3.40 0067  02.08.2006

@<TRIPOS>MOLECULE
ASD09116245
  74   80    0    0    0
SMALL
NO_CHARGES


@<TRIPOS>ATOM
   1 N1            -0.0589     1.5273    -0.5284 N.2     
   2 N2            -0.0821     0.2484    -1.1077 N.pl3   
   3 C3             1.1949     1.9110    -0.4978 C.2     
   4 N4             1.9590     0.9468    -1.0243 N.2     
   5 C5             1.2030    -0.0635    -1.3973 C.2     
   6 N6             1.6572     3.1282     0.0023 N.pl3   
   7 C7             3.0332     3.3746     0.0833 C.ar    
   8 C8             3.5135     4.6727    -0.0242 C.ar    
   9 C9             5.7557     3.8645     0.2437 C.ar    
  10 C10            3.9172     2.3206     0.2770 C.ar    
  11 C11           -1.2076    -0.5446    -1.3389 C.ar    
  12 N12           -1.1864    -1.4622    -2.2941 N.ar    
  13 N13           -2.1984    -2.2111    -2.5541 N.ar    
  14 C14           -3.3307    -2.1069    -1.8772 C.ar    
  15 C15           -3.4384    -1.1801    -0.8363 C.ar    
  16 C16           -2.3543    -0.3744    -0.5591 C.ar    
  17 C17           -4.5159    -2.9307    -2.2102 C.ar    
  18 C18           -5.7518    -2.3016    -2.3685 C.ar    
  19 C19           -5.8378    -0.8044    -2.2528 C.3     
  20 C20           -5.7905    -0.3550    -0.7949 C.3     
  21 C21           -4.7036    -1.1074    -0.0319 C.3     
  22 C22           -4.4125    -4.3091    -2.3610 C.ar    
  23 C23           -5.5411    -5.0520    -2.6489 C.ar    
  24 C24           -6.7676    -4.4273    -2.7844 C.ar    
  25 C25           -6.8733    -3.0543    -2.6435 C.ar    
  26 N26            1.6432    -1.2360    -1.9815 N.pl3   
  27 C27            4.8711     4.9168     0.0560 C.ar    
  28 N28            7.1325     4.1125     0.3255 N.3     
  29 C29            7.6474     4.6455    -0.9423 C.3     
  30 C30            5.2752     2.5642     0.3573 C.ar    
  31 C31            9.1710     4.7667    -0.8649 C.3     
  32 C32            7.4395     5.0133     1.4439 C.3     
  33 C33            8.9569     5.1454     1.5925 C.3     
  34 C34            9.5461     5.6976     0.2915 C.3     
  35 N35           11.0086     5.7718     0.4075 N.3     
  36 F36            6.1361     1.5391     0.5397 F       
  37 C37           11.6107     6.3004    -0.8302 C.3     
  38 C38           12.4393     7.5427    -0.4410 C.3     
  39 C39           12.7218     7.3160     1.0675 C.3     
  40 C40           11.4073     6.6422     1.5341 C.3     
  41 H41            1.0255     3.8041     0.2940 H       
  42 H42            2.8255     5.4922    -0.1711 H       
  43 H43            3.5433     1.3112     0.3651 H       
  44 H44           -2.3932     0.3666     0.2257 H       
  45 H45           -5.0025    -0.3566    -2.7912 H       
  46 H46           -6.7719    -0.4652    -2.7004 H       
  47 H47           -5.5820     0.7142    -0.7556 H       
  48 H48           -6.7563    -0.5489    -0.3282 H       
  49 H49           -5.0505    -2.1181     0.1826 H       
  50 H50           -4.5022    -0.5915     0.9069 H       
  51 H51           -3.4548    -4.7965    -2.2532 H       
  52 H52           -5.4655    -6.1226    -2.7687 H       
  53 H53           -7.6479    -5.0140    -3.0013 H       
  54 H54           -7.8342    -2.5729    -2.7494 H       
  55 H55            2.5891    -1.3682    -2.1507 H       
  56 H56            1.0062    -1.9267    -2.2223 H       
  57 H57            5.2438     5.9270    -0.0277 H       
  58 H58            7.3775     3.9720    -1.7557 H       
  59 H59            7.2138     5.6285    -1.1258 H       
  60 H60            9.6063     3.7819    -0.6951 H       
  61 H61            9.5514     5.1769    -1.8004 H       
  62 H62            7.0068     5.9946     1.2492 H       
  63 H63            7.0185     4.6069     2.3635 H       
  64 H64            9.1843     5.8263     2.4127 H       
  65 H65            9.3888     4.1666     1.8009 H       
  66 H66            9.1437     6.6929     0.1030 H       
  67 H67           12.2593     5.5475    -1.2780 H       
  68 H68           10.8266     6.5829    -1.5327 H       
  69 H69           13.3706     7.5775    -1.0065 H       
  70 H70           11.8613     8.4544    -0.5921 H       
  71 H71           13.5734     6.6506     1.2096 H       
  72 H72           12.8787     8.2639     1.5821 H       
  73 H73           10.6412     7.3945     1.7219 H       
  74 H74           11.5833     6.0468     2.4299 H       
@<TRIPOS>BOND
   1    1    2 1
   2    1    3 2
   3    2   11 1
   4    2    5 1
   5    3    4 1
   6    3    6 1
   7    4    5 2
   8    5   26 1
   9    6    7 1
  10    6   41 1
  11    7    8 ar
  12    7   10 ar
  13    8   27 ar
  14    8   42 1
  15    9   30 ar
  16    9   28 1
  17    9   27 ar
  18   10   30 ar
  19   10   43 1
  20   11   12 ar
  21   11   16 ar
  22   12   13 ar
  23   13   14 ar
  24   14   15 ar
  25   14   17 1
  26   15   16 ar
  27   15   21 1
  28   16   44 1
  29   17   18 ar
  30   17   22 ar
  31   18   19 1
  32   18   25 ar
  33   19   20 1
  34   19   45 1
  35   19   46 1
  36   20   21 1
  37   20   47 1
  38   20   48 1
  39   21   49 1
  40   21   50 1
  41   22   23 ar
  42   22   51 1
  43   23   24 ar
  44   23   52 1
  45   24   25 ar
  46   24   53 1
  47   25   54 1
  48   26   55 1
  49   26   56 1
  50   27   57 1
  51   28   32 1
  52   28   29 1
  53   29   31 1
  54   29   58 1
  55   29   59 1
  56   30   36 1
  57   31   34 1
  58   31   60 1
  59   31   61 1
  60   32   33 1
  61   32   62 1
  62   32   63 1
  63   33   34 1
  64   33   64 1
  65   33   65 1
  66   34   35 1
  67   34   66 1
  68   35   37 1
  69   35   40 1
  70   37   38 1
  71   37   67 1
  72   37   68 1
  73   38   39 1
  74   38   69 1
  75   38   70 1
  76   39   40 1
  77   39   71 1
  78   39   72 1
  79   40   73 1
  80   40   74 1

#	End of record

