#	Name: ASD05450009
#	Creating user name:	WinNT
#	Creation time:	15. 06. 2019 21:00

#	Modifying user name:	WinNT
#	Modification time:	15. 06. 2019 21:00

#	Program:	/corina/corina34_cracker 3.40 0067  02.08.2006

@<TRIPOS>MOLECULE
ASD05450009
  66   65    0    0    0
SMALL
NO_CHARGES


@<TRIPOS>ATOM
   1 C1             2.3896     1.7637     2.1599 C.3     
   2 C2             2.3076     0.2382     2.0754 C.3     
   3 C3             0.9088    -0.1724     1.6108 C.3     
   4 C4             0.8281    -1.6749     1.5276 C.2     
   5 C5             0.0034    -2.3307     2.3061 C.2     
   6 C6            -0.7227    -1.6096     3.4123 C.3     
   7 C7            -2.5046    -2.3987     5.4541 C.3     
   8 C8            -2.2060    -1.6501     3.1494 C.2     
   9 C9            -3.0229    -2.0942     4.0722 C.2     
  10 C10           -3.5501    -4.4994     8.4116 C.2     
  11 C11           -4.2337    -5.3703     9.1119 C.2     
  12 C12           -4.1815    -3.8299     7.2183 C.3     
  13 C13           -4.0428    -2.3350     7.3492 C.2     
  14 C14           -3.3344    -1.6639     6.4751 C.2     
  15 C15           -5.5859    -5.8295     8.6304 C.3     
  16 C16           -5.6142    -7.3580     8.5713 C.3     
  17 C17           -6.9870    -7.8242     8.0825 C.3     
  18 C18           -7.0154    -9.3528     8.0233 C.3     
  19 C19           -8.3882    -9.8189     7.5346 C.3     
  20 C20            3.7883     2.1743     2.6245 C.3     
  21 O21            3.8649     3.5990     2.7034 O.3     
  22 C22            5.1371     4.0900     3.1305 C.3     
  23 C23            6.0317     4.3176     1.9103 C.3     
  24 O24            5.4778     5.3567     1.1007 O.3     
  25 C25            4.9490     5.4113     3.8785 C.3     
  26 O26            4.4447     6.4004     2.9788 O.3     
  27 H27            2.1923     2.1931     1.1777 H       
  28 H28            1.6487     2.1285     2.8714 H       
  29 H29            3.0484    -0.1266     1.3639 H       
  30 H30            2.5048    -0.1912     3.0576 H       
  31 H31            0.1680     0.1924     2.3223 H       
  32 H32            0.7116     0.2570     0.6286 H       
  33 H33            1.4501    -2.2111     0.8262 H       
  34 H34           -0.1561    -3.3881     2.1550 H       
  35 H35           -0.5090    -2.0956     4.3643 H       
  36 H36           -0.3886    -0.5727     3.4507 H       
  37 H37           -2.5683    -3.4712     5.6379 H       
  38 H38           -1.4657    -2.0780     5.5314 H       
  39 H39           -2.5956    -1.3129     2.2002 H       
  40 H40           -4.0678    -2.2420     3.8427 H       
  41 H41           -2.5340    -4.2612     8.6896 H       
  42 H42           -3.8281    -5.7593    10.0342 H       
  43 H43           -3.6821    -4.1628     6.3084 H       
  44 H44           -5.2380    -4.0939     7.1703 H       
  45 H45           -4.5273    -1.8170     8.1636 H       
  46 H46           -3.3452    -0.5840     6.4862 H       
  47 H47           -6.3550    -5.4782     9.3183 H       
  48 H48           -5.7746    -5.4238     7.6365 H       
  49 H49           -4.8451    -7.7093     7.8834 H       
  50 H50           -5.4254    -7.7637     9.5652 H       
  51 H51           -7.7562    -7.4729     8.7704 H       
  52 H52           -7.1758    -7.4185     7.0885 H       
  53 H53           -6.2463    -9.7041     7.3355 H       
  54 H54           -6.8266    -9.7584     9.0173 H       
  55 H55           -9.1573    -9.4676     8.2224 H       
  56 H56           -8.5770    -9.4133     6.5406 H       
  57 H57           -8.4084   -10.9079     7.4924 H       
  58 H58            3.9856     1.7449     3.6067 H       
  59 H59            4.5291     1.8095     1.9130 H       
  60 H60            5.6043     3.3610     3.7926 H       
  61 H61            7.0295     4.6068     2.2402 H       
  62 H62            6.0937     3.3978     1.3286 H       
  63 H63            5.9943     5.5550     0.3076 H       
  64 H64            4.2416     5.2688     4.6954 H       
  65 H65            5.9070     5.7407     4.2807 H       
  66 H66            4.3009     7.2657     3.3859 H       
@<TRIPOS>BOND
   1    1    2 1
   2    1   20 1
   3    1   27 1
   4    1   28 1
   5    2    3 1
   6    2   29 1
   7    2   30 1
   8    3    4 1
   9    3   31 1
  10    3   32 1
  11    4    5 2
  12    4   33 1
  13    5    6 1
  14    5   34 1
  15    6    8 1
  16    6   35 1
  17    6   36 1
  18    7    9 1
  19    7   14 1
  20    7   37 1
  21    7   38 1
  22    8    9 2
  23    8   39 1
  24    9   40 1
  25   10   11 2
  26   10   12 1
  27   10   41 1
  28   11   15 1
  29   11   42 1
  30   12   13 1
  31   12   43 1
  32   12   44 1
  33   13   14 2
  34   13   45 1
  35   14   46 1
  36   15   16 1
  37   15   47 1
  38   15   48 1
  39   16   17 1
  40   16   49 1
  41   16   50 1
  42   17   18 1
  43   17   51 1
  44   17   52 1
  45   18   19 1
  46   18   53 1
  47   18   54 1
  48   19   55 1
  49   19   56 1
  50   19   57 1
  51   20   21 1
  52   20   58 1
  53   20   59 1
  54   21   22 1
  55   22   23 1
  56   22   25 1
  57   22   60 1
  58   23   24 1
  59   23   61 1
  60   23   62 1
  61   24   63 1
  62   25   26 1
  63   25   64 1
  64   25   65 1
  65   26   66 1

#	End of record

