#	Name: ASD01910131
#	Creating user name:	WinNT
#	Creation time:	15. 06. 2019 19:55

#	Modifying user name:	WinNT
#	Modification time:	15. 06. 2019 19:55

#	Program:	/corina/corina34_cracker 3.40 0067  02.08.2006

@<TRIPOS>MOLECULE
ASD01910131
  48   50    0    0    0
SMALL
NO_CHARGES


@<TRIPOS>ATOM
   1 N1            -0.0010     1.4172    -0.0023 N.2     
   2 N2            -0.0125     0.0173    -0.0489 N.pl3   
   3 C3             1.2432     1.8213     0.0426 C.2     
   4 C4             2.0753     0.7018     0.0266 C.2     
   5 C5             1.2819    -0.4091    -0.0303 C.2     
   6 C6             1.7427    -1.8149    -0.0651 C.ar    
   7 C7             1.7003     3.2561     0.1012 C.3     
   8 C8             0.9147    -2.8098    -0.5837 C.ar    
   9 C9             1.9388     3.6562     1.5585 C.3     
  10 C10            1.3524    -4.1231    -0.6137 C.ar    
  11 C11            2.6124    -4.4467    -0.1284 C.ar    
  12 C12            3.4340    -3.4614     0.3864 C.ar    
  13 C13            3.0092    -2.1484     0.4154 C.ar    
  14 C14            2.4029     5.1129     1.6180 C.3     
  15 C15            3.7039     5.2664     0.8275 C.3     
  16 C16            3.4653     4.8663    -0.6298 C.3     
  17 C17            3.0012     3.4096    -0.6893 C.3     
  18 C18           -1.2023    -0.8355    -0.1065 C.3     
  19 C19           -1.6368    -0.9954    -1.5406 C.2     
  20 O20           -2.7131    -1.7408    -1.8367 O.3     
  21 O21           -1.0163    -0.4527    -2.4239 O.2     
  22 C22           -3.0735    -1.8506    -3.2389 C.3     
  23 O23            0.5482    -5.0958    -1.1179 O.3     
  24 C24            1.0639    -6.4285    -1.1178 C.3     
  25 H25            3.1549     0.7114     0.0539 H       
  26 H26            0.9341     3.8995    -0.3315 H       
  27 H27           -0.0653    -2.5568    -0.9605 H       
  28 H28            1.0120     3.5469     2.1217 H       
  29 H29            2.7050     3.0128     1.9912 H       
  30 H30            2.9516    -5.4717    -0.1528 H       
  31 H31            4.4130    -3.7189     0.7628 H       
  32 H32            3.6536    -1.3809     0.8179 H       
  33 H33            1.6368     5.7563     1.1853 H       
  34 H34            2.5729     5.3980     2.6563 H       
  35 H35            4.0345     6.3042     0.8699 H       
  36 H36            4.4700     4.6230     1.2602 H       
  37 H37            2.6992     5.5096    -1.0625 H       
  38 H38            4.3921     4.9756    -1.1930 H       
  39 H39            3.7673     2.7662    -0.2567 H       
  40 H40            2.8313     3.1245    -1.7276 H       
  41 H41           -0.9687    -1.8139     0.3136 H       
  42 H42           -2.0067    -0.3761     0.4678 H       
  43 H43           -3.2852    -0.8587    -3.6384 H       
  44 H44           -2.2472    -2.2964    -3.7926 H       
  45 H45           -3.9586    -2.4789    -3.3385 H       
  46 H46            0.3236    -7.1045    -1.5457 H       
  47 H47            1.9763    -6.4651    -1.7130 H       
  48 H48            1.2850    -6.7325    -0.0947 H       
@<TRIPOS>BOND
   1    1    2 1
   2    1    3 2
   3    2   18 1
   4    2    5 1
   5    3    4 1
   6    3    7 1
   7    4    5 2
   8    4   25 1
   9    5    6 1
  10    6    8 ar
  11    6   13 ar
  12    7    9 1
  13    7   17 1
  14    7   26 1
  15    8   10 ar
  16    8   27 1
  17    9   14 1
  18    9   28 1
  19    9   29 1
  20   10   11 ar
  21   10   23 1
  22   11   12 ar
  23   11   30 1
  24   12   13 ar
  25   12   31 1
  26   13   32 1
  27   14   15 1
  28   14   33 1
  29   14   34 1
  30   15   16 1
  31   15   35 1
  32   15   36 1
  33   16   17 1
  34   16   37 1
  35   16   38 1
  36   17   39 1
  37   17   40 1
  38   18   19 1
  39   18   41 1
  40   18   42 1
  41   19   20 1
  42   19   21 2
  43   20   22 1
  44   22   43 1
  45   22   44 1
  46   22   45 1
  47   23   24 1
  48   24   46 1
  49   24   47 1
  50   24   48 1

#	End of record

