#	Name: ASD01917335
#	Creating user name:	WinNT
#	Creation time:	15. 06. 2019 20:09

#	Modifying user name:	WinNT
#	Modification time:	15. 06. 2019 20:09

#	Program:	/corina/corina34_cracker 3.40 0067  02.08.2006

@<TRIPOS>MOLECULE
ASD01917335
  48   51    0    0    0
SMALL
NO_CHARGES


@<TRIPOS>ATOM
   1 C1            -0.0168     1.3902     0.0097 C.ar    
   2 C2             0.0021    -0.0041     0.0020 C.ar    
   3 N3             1.1281     2.0669     0.0024 N.ar    
   4 N4             1.1562    -0.6463    -0.0125 N.ar    
   5 C5             2.2907     0.0310    -0.0196 C.ar    
   6 C6             2.2753     1.4182    -0.0120 C.ar    
   7 C7            -1.3085     2.1156     0.0197 C.2     
   8 O8            -2.3536     1.4956     0.0213 O.2     
   9 N9            -1.3245     3.4633     0.0271 N.am    
  10 C10           -2.6019     4.1806     0.0371 C.3     
  11 C11           -3.4657     3.8302     1.2613 C.3     
  12 C12           -4.8653     4.4173     1.0685 C.3     
  13 C13           -4.7806     5.9248     0.8223 C.3     
  14 C14           -3.8602     6.1851    -0.3830 C.3     
  15 C15           -4.2573     5.1849    -1.4932 C.3     
  16 C16           -3.4514     3.9012    -1.2242 C.3     
  17 C17           -2.4388     5.7236     0.0340 C.3     
  18 N18           -3.9074     7.5778    -0.8353 N.am    
  19 C19           -5.0754     8.1163    -1.2380 C.2     
  20 C20           -5.1230     9.5218    -1.6944 C.ar    
  21 C21           -6.3311    10.0825    -2.1121 C.ar    
  22 C22           -6.3686    11.3956    -2.5366 C.ar    
  23 C23           -5.2108    12.1555    -2.5483 C.ar    
  24 C24           -4.0109    11.6047    -2.1358 C.ar    
  25 C25           -3.9614    10.2952    -1.7039 C.ar    
  26 O26           -6.0896     7.4465    -1.2260 O.2     
  27 Cl27          -7.8696    12.0954    -3.0572 Cl      
  28 H28           -0.9252    -0.5578     0.0083 H       
  29 H29            3.2328    -0.4969    -0.0315 H       
  30 H30            3.2051     1.9676    -0.0183 H       
  31 H31           -0.4903     3.9582     0.0259 H       
  32 H32           -3.5351     2.7469     1.3606 H       
  33 H33           -3.0139     4.2518     2.1592 H       
  34 H34           -5.3426     3.9384     0.2135 H       
  35 H35           -5.4609     4.2306     1.9621 H       
  36 H36           -5.7758     6.3166     0.6125 H       
  37 H37           -4.3725     6.4162     1.7056 H       
  38 H38           -5.3255     4.9741    -1.4429 H       
  39 H39           -4.0006     5.5902    -2.4719 H       
  40 H40           -2.8024     3.6817    -2.0720 H       
  41 H41           -4.1274     3.0656    -1.0430 H       
  42 H42           -2.1842     6.0917     1.0279 H       
  43 H43           -1.6954     6.0366    -0.6991 H       
  44 H44           -3.0980     8.1123    -0.8448 H       
  45 H45           -7.2343     9.4903    -2.1035 H       
  46 H46           -5.2449    13.1823    -2.8812 H       
  47 H47           -3.1114    12.2024    -2.1480 H       
  48 H48           -3.0245     9.8682    -1.3776 H       
@<TRIPOS>BOND
   1    1    2 ar
   2    1    3 ar
   3    1    7 1
   4    2    4 ar
   5    2   28 1
   6    3    6 ar
   7    4    5 ar
   8    5    6 ar
   9    5   29 1
  10    6   30 1
  11    7    8 2
  12    7    9 am
  13    9   10 1
  14    9   31 1
  15   10   11 1
  16   10   16 1
  17   10   17 1
  18   11   12 1
  19   11   32 1
  20   11   33 1
  21   12   13 1
  22   12   34 1
  23   12   35 1
  24   13   14 1
  25   13   36 1
  26   13   37 1
  27   14   15 1
  28   14   17 1
  29   14   18 1
  30   15   16 1
  31   15   38 1
  32   15   39 1
  33   16   40 1
  34   16   41 1
  35   17   42 1
  36   17   43 1
  37   18   19 am
  38   18   44 1
  39   19   20 1
  40   19   26 2
  41   20   21 ar
  42   20   25 ar
  43   21   22 ar
  44   21   45 1
  45   22   23 ar
  46   22   27 1
  47   23   24 ar
  48   23   46 1
  49   24   25 ar
  50   24   47 1
  51   25   48 1

#	End of record

