#	Name: ASD02408116
#	Creating user name:	WinNT
#	Creation time:	15. 06. 2019 20:21

#	Modifying user name:	WinNT
#	Modification time:	15. 06. 2019 20:21

#	Program:	/corina/corina34_cracker 3.40 0067  02.08.2006

@<TRIPOS>MOLECULE
ASD02408116
  43   45    0    0    0
SMALL
NO_CHARGES


@<TRIPOS>ATOM
   1 C1             1.7022     5.9280    -3.2739 C.2     
   2 C2             0.4644     6.4237    -3.3103 C.2     
   3 C3             2.2472     5.1959    -2.0747 C.3     
   4 C4             1.9524     3.7240    -2.2081 C.2     
   5 N5             2.3590     2.8876    -1.2335 N.am    
   6 N6             1.3070     3.3027    -3.2616 N.2     
   7 C7             1.0170     2.0067    -3.4330 C.2     
   8 C8             1.4162     1.0783    -2.4573 C.2     
   9 C9             2.1115     1.5637    -1.3201 C.2     
  10 N10            0.3363     1.5897    -4.5505 N.pl3   
  11 C11           -0.7000     0.5500    -4.4590 C.3     
  12 O12            2.4809     0.8018    -0.4432 O.2     
  13 S13            0.1873     7.2049    -4.8616 S.3     
  14 C14            1.8163     6.8027    -5.3889 C.2     
  15 C15            2.4463     6.1320    -4.4232 C.2     
  16 C16           -1.9689     1.0657    -5.1462 C.3     
  17 N17           -1.6414     1.4978    -6.5115 N.3     
  18 C18           -0.6967     2.6227    -6.5022 C.3     
  19 C19            0.6200     2.1752    -5.8695 C.3     
  20 C20           -2.8575     1.8379    -7.2620 C.3     
  21 C21           -2.4724     2.3623    -8.6468 C.3     
  22 O22           -1.7522     1.3518    -9.3555 O.3     
  23 C23            1.1252    -0.3161    -2.6038 C.1     
  24 N24            0.8944    -1.4223    -2.7200 N.1     
  25 H25           -0.2575     6.3553    -2.5099 H       
  26 H26            3.3251     5.3467    -2.0159 H       
  27 H27            1.7767     5.5801    -1.1697 H       
  28 H28            2.8333     3.2394    -0.4640 H       
  29 H29           -0.3554    -0.3555    -4.9584 H       
  30 H30           -0.9122     0.3357    -3.4116 H       
  31 H31            2.2400     7.0557    -6.3495 H       
  32 H32            3.4626     5.7819    -4.5270 H       
  33 H33           -2.7111     0.2683    -5.1853 H       
  34 H34           -2.3698     1.9091    -4.5841 H       
  35 H35           -0.5163     2.9546    -7.5246 H       
  36 H36           -1.1154     3.4445    -5.9211 H       
  37 H37            1.2821     3.0336    -5.7561 H       
  38 H38            1.0939     1.4248    -6.5024 H       
  39 H39           -3.4784     0.9485    -7.3701 H       
  40 H40           -3.4135     2.6059    -6.7243 H       
  41 H41           -3.3744     2.6218    -9.2008 H       
  42 H42           -1.8452     3.2472    -8.5386 H       
  43 H43           -1.4755     1.6157   -10.2437 H       
@<TRIPOS>BOND
   1    1    2 2
   2    1    3 1
   3    1   15 1
   4    2   13 1
   5    2   25 1
   6    3    4 1
   7    3   26 1
   8    3   27 1
   9    4    5 1
  10    4    6 2
  11    5    9 am
  12    5   28 1
  13    6    7 1
  14    7    8 2
  15    7   10 1
  16    8    9 1
  17    8   23 1
  18    9   12 2
  19   10   11 1
  20   10   19 1
  21   11   16 1
  22   11   29 1
  23   11   30 1
  24   13   14 1
  25   14   15 2
  26   14   31 1
  27   15   32 1
  28   16   17 1
  29   16   33 1
  30   16   34 1
  31   17   18 1
  32   17   20 1
  33   18   19 1
  34   18   35 1
  35   18   36 1
  36   19   37 1
  37   19   38 1
  38   20   21 1
  39   20   39 1
  40   20   40 1
  41   21   22 1
  42   21   41 1
  43   21   42 1
  44   22   43 1
  45   23   24 3

#	End of record

