#	Name: ASD02360002
#	Creating user name:	WinNT
#	Creation time:	15. 06. 2019 20:20

#	Modifying user name:	WinNT
#	Modification time:	15. 06. 2019 20:20

#	Program:	/corina/corina34_cracker 3.40 0067  02.08.2006

@<TRIPOS>MOLECULE
ASD02360002
  34   36    0    0    0
SMALL
NO_CHARGES


@<TRIPOS>ATOM
   1 C1            -0.3778     1.7403    -0.1663 C.ar    
   2 C2            -0.1809     0.3783    -0.0194 C.ar    
   3 C3            -1.2689    -0.4766     0.0242 C.ar    
   4 C4            -2.5526     0.0317    -0.0791 C.ar    
   5 C5            -2.7481     1.3922    -0.2262 C.ar    
   6 C6            -1.6630     2.2471    -0.2636 C.ar    
   7 F7            -1.0782    -1.8064     0.1671 F       
   8 F8             0.6831     2.5757    -0.2090 F       
   9 C9            -3.7372    -0.8987    -0.0316 C.3     
  10 O10           -4.9427    -0.1417    -0.1571 O.3     
  11 C11           -3.6434    -1.9029    -1.1821 C.3     
  12 C12           -3.7429    -1.6495     1.3015 C.3     
  13 N13           -4.8764    -2.5770     1.3347 N.pl3   
  14 N14           -3.5066    -1.1816    -2.4499 N.pl3   
  15 C15           -4.8255    -3.9044     1.5408 C.2     
  16 N16           -6.0476    -4.3694     1.4962 N.2     
  17 C17           -6.9019    -3.3734     1.2648 C.2     
  18 N18           -6.2327    -2.2551     1.1637 N.2     
  19 N19           -4.3630    -0.1867    -2.9490 N.2     
  20 C20           -3.8754     0.1873    -4.1027 C.2     
  21 N21           -2.7695    -0.5126    -4.3524 N.2     
  22 C22           -2.5330    -1.3364    -3.3639 C.2     
  23 H23            0.8208    -0.0174     0.0607 H       
  24 H24           -3.7497     1.7877    -0.3074 H       
  25 H25           -1.8169     3.3099    -0.3785 H       
  26 H26           -5.0075     0.3610    -0.9806 H       
  27 H27           -2.7753    -2.5452    -1.0339 H       
  28 H28           -4.5466    -2.5126    -1.2066 H       
  29 H29           -2.8131    -2.2081     1.4079 H       
  30 H30           -3.8335    -0.9356     2.1202 H       
  31 H31           -3.9317    -4.4857     1.7127 H       
  32 H32           -7.9739    -3.4733     1.1791 H       
  33 H33           -4.3003     0.9411    -4.7490 H       
  34 H34           -1.7038    -2.0252    -3.2968 H       
@<TRIPOS>BOND
   1    1    2 ar
   2    1    8 1
   3    1    6 ar
   4    2    3 ar
   5    2   23 1
   6    3    4 ar
   7    3    7 1
   8    4    5 ar
   9    4    9 1
  10    5    6 ar
  11    5   24 1
  12    6   25 1
  13    9   10 1
  14    9   11 1
  15    9   12 1
  16   10   26 1
  17   11   14 1
  18   11   27 1
  19   11   28 1
  20   12   13 1
  21   12   29 1
  22   12   30 1
  23   13   15 1
  24   13   18 1
  25   14   19 1
  26   14   22 1
  27   15   16 2
  28   15   31 1
  29   16   17 1
  30   17   18 2
  31   17   32 1
  32   19   20 2
  33   20   21 1
  34   20   33 1
  35   21   22 2
  36   22   34 1

#	End of record

