#	Name: ASD00710003
#	Creating user name:	WinNT
#	Creation time:	15. 06. 2019 18:37

#	Modifying user name:	WinNT
#	Modification time:	15. 06. 2019 18:37

#	Program:	/corina/corina34_cracker 3.40 0067  02.08.2006

@<TRIPOS>MOLECULE
ASD00710003
  73   77    0    0    0
SMALL
NO_CHARGES


@<TRIPOS>ATOM
   1 P1            -0.0180     1.4758     0.0102 P.3     
   2 O2             0.0021    -0.0041     0.0020 O.2     
   3 O3             1.4924     2.0330    -0.0013 O.3     
   4 O4            -0.7967     2.0091    -1.2942 O.3     
   5 O5            -0.7716     1.9950     1.3348 O.3     
   6 C6            -0.4354     1.6326    -2.6245 C.3     
   7 O7            -1.1742     3.7449    -3.6030 O.3     
   8 C8            -1.3752     2.3148    -3.6206 C.3     
   9 C9            -1.0318     1.8857    -5.0644 C.3     
  10 C10           -1.2518     3.1671    -5.8992 C.3     
  11 C11           -1.7020     4.2188    -4.8611 C.3     
  12 O12           -0.0329     3.5719    -6.5258 O.3     
  13 O13            0.3296     1.4600    -5.1499 O.3     
  14 C14           -1.9703     6.5780    -5.4753 C.2     
  15 C15           -1.4998     7.6688    -6.1070 C.2     
  16 C16           -0.0603     7.7695    -6.5247 C.3     
  17 C17            0.7762     6.7434    -5.8159 C.2     
  18 C18            0.2370     5.7115    -5.2055 C.2     
  19 N19           -1.1395     5.5314    -5.1881 N.pl3   
  20 C20           -2.3784     8.7422    -6.3840 C.2     
  21 N21           -1.9214     9.8413    -7.0161 N.am    
  22 O22           -3.5478     8.6732    -6.0512 O.2     
  23 P23           -0.7058     1.5880     2.8911 P.3     
  24 O24           -0.5959     0.1170     3.0121 O.2     
  25 O25            0.5781     2.2799     3.5729 O.3     
  26 O26           -2.0434     2.0892     3.6339 O.3     
  27 C27           -2.3338     1.7889     5.0005 C.3     
  28 O28           -3.5727     3.8475     5.3608 O.3     
  29 C29           -3.6760     2.4140     5.3859 C.3     
  30 C30           -4.0499     2.0068     6.8243 C.3     
  31 C31           -4.1940     3.3532     7.5746 C.3     
  32 C32           -4.4268     4.3501     6.4108 C.3     
  33 O33           -5.3179     3.3277     8.4567 O.3     
  34 O34           -3.0105     1.2182     7.4071 O.3     
  35 N35           -2.7791     7.4726     7.0953 N.2     
  36 C36           -2.7871     6.2550     6.6360 C.2     
  37 N37           -4.0225     5.7029     6.8016 N.pl3   
  38 C38           -4.8177     6.6466     7.4010 C.ar    
  39 N39           -6.0840     6.6892     7.8020 N.ar    
  40 C40           -6.5740     7.7747     8.3629 C.ar    
  41 N41           -5.8498     8.8620     8.5549 N.ar    
  42 C42           -4.5738     8.9131     8.1865 C.ar    
  43 C43           -4.0051     7.7785     7.5836 C.ar    
  44 N44           -3.8229    10.0573     8.3915 N.pl3   
  45 H45            1.5557     2.9980     0.0033 H       
  46 H46            0.5909     1.9412    -2.8234 H       
  47 H47           -0.5166     0.5508    -2.7307 H       
  48 H48           -2.4131     2.0746    -3.3901 H       
  49 H49           -1.7024     1.0934    -5.3970 H       
  50 H50           -2.0294     3.0075    -6.6462 H       
  51 H51           -2.7900     4.2706    -4.8208 H       
  52 H52            0.3270     2.9207    -7.1434 H       
  53 H53            0.5991     1.1793    -6.0351 H       
  54 H54           -3.0106     6.5310    -5.1892 H       
  55 H55            0.0127     7.6102    -7.6005 H       
  56 H56            0.3137     8.7647    -6.2844 H       
  57 H57            1.8503     6.8561    -5.8077 H       
  58 H58            0.8740     4.9932    -4.7108 H       
  59 H59           -0.9899     9.8962    -7.2812 H       
  60 H60           -2.5239    10.5774    -7.2060 H       
  61 H61            0.5732     3.2460     3.5306 H       
  62 H62           -2.3853     0.7081     5.1320 H       
  63 H63           -1.5476     2.1953     5.6368 H       
  64 H64           -4.4521     2.0862     4.6943 H       
  65 H65           -4.9940     1.4621     6.8334 H       
  66 H66           -3.2807     3.5954     8.1180 H       
  67 H67           -5.4704     4.3361     6.0964 H       
  68 H68           -5.2588     2.6559     9.1497 H       
  69 H69           -3.1933     0.9341     8.3131 H       
  70 H70           -1.9402     5.7557     6.1891 H       
  71 H71           -7.6072     7.7761     8.6774 H       
  72 H72           -4.2269    10.8343     8.8085 H       
  73 H73           -2.8925    10.0823     8.1183 H       
@<TRIPOS>BOND
   1    1    2 2
   2    1    3 1
   3    1    4 1
   4    1    5 1
   5    3   45 1
   6    4    6 1
   7    5   23 1
   8    6    8 1
   9    6   46 1
  10    6   47 1
  11    7    8 1
  12    7   11 1
  13    8    9 1
  14    8   48 1
  15    9   10 1
  16    9   13 1
  17    9   49 1
  18   10   12 1
  19   10   11 1
  20   10   50 1
  21   11   19 1
  22   11   51 1
  23   12   52 1
  24   13   53 1
  25   14   15 2
  26   14   19 1
  27   14   54 1
  28   15   16 1
  29   15   20 1
  30   16   17 1
  31   16   55 1
  32   16   56 1
  33   17   18 2
  34   17   57 1
  35   18   19 1
  36   18   58 1
  37   20   21 am
  38   20   22 2
  39   21   59 1
  40   21   60 1
  41   23   24 2
  42   23   25 1
  43   23   26 1
  44   25   61 1
  45   26   27 1
  46   27   29 1
  47   27   62 1
  48   27   63 1
  49   28   29 1
  50   28   32 1
  51   29   30 1
  52   29   64 1
  53   30   31 1
  54   30   34 1
  55   30   65 1
  56   31   33 1
  57   31   32 1
  58   31   66 1
  59   32   37 1
  60   32   67 1
  61   33   68 1
  62   34   69 1
  63   35   36 2
  64   35   43 1
  65   36   37 1
  66   36   70 1
  67   37   38 1
  68   38   39 ar
  69   38   43 ar
  70   39   40 ar
  71   40   41 ar
  72   40   71 1
  73   41   42 ar
  74   42   43 ar
  75   42   44 1
  76   44   72 1
  77   44   73 1

#	End of record

