#	Name: ASD01917059
#	Creating user name:	WinNT
#	Creation time:	15. 06. 2019 20:08

#	Modifying user name:	WinNT
#	Modification time:	15. 06. 2019 20:08

#	Program:	/corina/corina34_cracker 3.40 0067  02.08.2006

@<TRIPOS>MOLECULE
ASD01917059
  43   45    0    0    0
SMALL
NO_CHARGES


@<TRIPOS>ATOM
   1 C1            -0.0184     1.5028     0.0103 C.3     
   2 C2             0.0021    -0.0041     0.0020 C.2     
   3 N3             0.5336    -0.7573    -0.9243 N.2     
   4 C4             0.3686    -2.0488    -0.6084 C.2     
   5 N5            -0.2770    -2.1240     0.5348 N.2     
   6 N6            -0.5186    -0.8043     0.9496 N.pl3   
   7 C7            -1.2101    -0.3820     2.1702 C.3     
   8 C8            -0.2100    -0.2309     3.2874 C.2     
   9 O9            -0.6194     0.1506     4.5075 O.3     
  10 O10            0.9602    -0.4531     3.0849 O.2     
  11 C11            0.3987     0.2754     5.5352 C.3     
  12 C12            0.8360    -3.2031    -1.4154 C.ar    
  13 C13            1.5112    -2.9891    -2.6151 C.ar    
  14 C14            0.6059    -4.5043    -0.9724 C.ar    
  15 C15            1.0426    -5.5745    -1.7254 C.ar    
  16 C16            1.9445    -4.0655    -3.3621 C.ar    
  17 C17            1.7091    -5.3573    -2.9207 C.ar    
  18 F18            2.1350    -6.4082    -3.6551 F       
  19 C19            0.7948    -6.9820    -1.2472 C.3     
  20 C20            1.4199     2.0495    -0.0005 C.3     
  21 C21            1.5627     2.8889    -1.2869 C.3     
  22 C22            0.1102     3.2974    -1.6370 C.3     
  23 C23           -0.6995     2.0291    -1.2699 C.3     
  24 H24           -0.5485     1.8639     0.8916 H       
  25 H25           -1.7061     0.5726     1.9950 H       
  26 H26           -1.9518    -1.1318     2.4455 H       
  27 H27            0.8901    -0.6869     5.6787 H       
  28 H28            1.1357     1.0175     5.2283 H       
  29 H29           -0.0654     0.5894     6.4702 H       
  30 H30            1.6948    -1.9824    -2.9602 H       
  31 H31            0.0868    -4.6745    -0.0407 H       
  32 H32            2.4677    -3.9005    -4.2925 H       
  33 H33           -0.1616    -7.3340    -1.6338 H       
  34 H34            1.5928    -7.6329    -1.6043 H       
  35 H35            0.7739    -6.9971    -0.1575 H       
  36 H36            1.5876     2.6766     0.8751 H       
  37 H37            2.1327     1.2249    -0.0117 H       
  38 H38            2.1729     3.7725    -1.1000 H       
  39 H39            1.9938     2.2888    -2.0881 H       
  40 H40           -0.2083     4.1472    -1.0332 H       
  41 H41            0.0173     3.5209    -2.6998 H       
  42 H42           -0.6336     1.2901    -2.0684 H       
  43 H43           -1.7401     2.2852    -1.0707 H       
@<TRIPOS>BOND
   1    1    2 1
   2    1   20 1
   3    1   23 1
   4    1   24 1
   5    2    3 2
   6    2    6 1
   7    3    4 1
   8    4    5 2
   9    4   12 1
  10    5    6 1
  11    6    7 1
  12    7    8 1
  13    7   25 1
  14    7   26 1
  15    8    9 1
  16    8   10 2
  17    9   11 1
  18   11   27 1
  19   11   28 1
  20   11   29 1
  21   12   13 ar
  22   12   14 ar
  23   13   16 ar
  24   13   30 1
  25   14   15 ar
  26   14   31 1
  27   15   17 ar
  28   15   19 1
  29   16   17 ar
  30   16   32 1
  31   17   18 1
  32   19   33 1
  33   19   34 1
  34   19   35 1
  35   20   21 1
  36   20   36 1
  37   20   37 1
  38   21   22 1
  39   21   38 1
  40   21   39 1
  41   22   23 1
  42   22   40 1
  43   22   41 1
  44   23   42 1
  45   23   43 1

#	End of record

