#	Name: ASD01882646
#	Creating user name:	WinNT
#	Creation time:	15. 06. 2019 19:44

#	Modifying user name:	WinNT
#	Modification time:	15. 06. 2019 19:44

#	Program:	/corina/corina34_cracker 3.40 0067  02.08.2006

@<TRIPOS>MOLECULE
ASD01882646
  53   57    0    0    0
SMALL
NO_CHARGES


@<TRIPOS>ATOM
   1 C1             0.7325     1.4200     1.0811 C.2     
   2 C2             0.7681     0.0147     1.0979 C.2     
   3 C3             1.2066    -0.6546    -0.0130 C.2     
   4 C4             1.6135     0.0753    -1.1506 C.2     
   5 C5             1.5716     1.4222    -1.1446 C.2     
   6 N6             1.1358     2.0991    -0.0428 N.pl3   
   7 N7             0.5215     3.5067     1.4678 N.2     
   8 N8             0.3653     2.3319     1.9686 N.2     
   9 C9             0.9860     3.4230     0.2489 C.2     
  10 C10            1.2967     4.5782    -0.6677 C.3     
  11 C11            0.0526     4.9285    -1.4865 C.3     
  12 C12            0.1284     6.1559    -2.3968 C.3     
  13 C13            0.1328     4.7516    -3.0041 C.3     
  14 Cl14           0.2630    -0.8607     2.5093 Cl      
  15 N15            1.2514    -2.0467    -0.0204 N.pl3   
  16 C16            2.5331    -2.7538    -0.1467 C.3     
  17 C17            2.4377    -3.7432    -1.3123 C.3     
  18 C18            1.2317    -4.6612    -1.0996 C.3     
  19 C19           -0.0494    -3.8245    -1.0701 C.3     
  20 C20            0.0184    -2.8360     0.1039 C.3     
  21 C21            1.1545    -5.6580    -2.2271 C.ar    
  22 C22            1.2244    -7.0168    -1.9578 C.ar    
  23 C23            1.1526    -7.9333    -2.9972 C.ar    
  24 C24            1.0116    -7.4907    -4.2992 C.ar    
  25 C25            0.9425    -6.1341    -4.5659 C.ar    
  26 C26            1.0083    -5.2190    -3.5288 C.ar    
  27 O27            1.3636    -7.4503    -0.6766 O.3     
  28 C28            0.1634    -7.6977     0.0585 C.3     
  29 F29            0.8055    -5.7027    -5.8389 F       
  30 Br30           1.2483    -9.7864    -2.6329 Br      
  31 H31            1.9602    -0.4479    -2.0295 H       
  32 H32            1.8859     1.9710    -2.0200 H       
  33 H33            1.5964     5.4422    -0.0746 H       
  34 H34            2.1080     4.3002    -1.3405 H       
  35 H35           -0.9021     4.7175    -1.0046 H       
  36 H36           -0.7764     6.7522    -2.5141 H       
  37 H37            1.0647     6.7138    -2.4123 H       
  38 H38            1.0718     4.3857    -3.4192 H       
  39 H39           -0.7693     4.4240    -3.5210 H       
  40 H40            3.3292    -2.0352    -0.3416 H       
  41 H41            2.7442    -3.2950     0.7756 H       
  42 H42            2.3169    -3.1945    -2.2463 H       
  43 H43            3.3473    -4.3421    -1.3566 H       
  44 H44            1.3412    -5.1912    -0.1534 H       
  45 H45           -0.1467    -3.2750    -2.0064 H       
  46 H46           -0.9099    -4.4812    -0.9419 H       
  47 H47            0.0287    -3.3837     1.0463 H       
  48 H48           -0.8453    -2.1717     0.0744 H       
  49 H49            0.9557    -8.2036    -5.1086 H       
  50 H50            0.9497    -4.1610    -3.7381 H       
  51 H51           -0.4198    -6.7791     0.1219 H       
  52 H52           -0.4215    -8.4652    -0.4485 H       
  53 H53            0.4161    -8.0377     1.0628 H       
@<TRIPOS>BOND
   1    1    2 1
   2    1    6 1
   3    1    8 2
   4    2    3 2
   5    2   14 1
   6    3    4 1
   7    3   15 1
   8    4    5 2
   9    4   31 1
  10    5    6 1
  11    5   32 1
  12    6    9 1
  13    7    8 1
  14    7    9 2
  15    9   10 1
  16   10   11 1
  17   10   33 1
  18   10   34 1
  19   11   12 1
  20   11   13 1
  21   11   35 1
  22   12   13 1
  23   12   36 1
  24   12   37 1
  25   13   38 1
  26   13   39 1
  27   15   16 1
  28   15   20 1
  29   16   17 1
  30   16   40 1
  31   16   41 1
  32   17   18 1
  33   17   42 1
  34   17   43 1
  35   18   19 1
  36   18   21 1
  37   18   44 1
  38   19   20 1
  39   19   45 1
  40   19   46 1
  41   20   47 1
  42   20   48 1
  43   21   22 ar
  44   21   26 ar
  45   22   23 ar
  46   22   27 1
  47   23   24 ar
  48   23   30 1
  49   24   25 ar
  50   24   49 1
  51   25   26 ar
  52   25   29 1
  53   26   50 1
  54   27   28 1
  55   28   51 1
  56   28   52 1
  57   28   53 1

#	End of record

