#	Name: ASD08150512
#	Creating user name:	WinNT
#	Creation time:	15. 06. 2019 21:16

#	Modifying user name:	WinNT
#	Modification time:	15. 06. 2019 21:16

#	Program:	/corina/corina34_cracker 3.40 0067  02.08.2006

@<TRIPOS>MOLECULE
ASD08150512
  46   50    0    0    0
SMALL
NO_CHARGES


@<TRIPOS>ATOM
   1 N1             0.0027     1.3750     0.0877 N.am    
   2 C2             0.0732     0.1152     0.5597 C.2     
   3 C3             1.2923    -0.5925     0.5543 C.2     
   4 C4             2.4184    -0.0096     0.0698 C.2     
   5 C5             2.3479     1.3155    -0.4279 C.ar    
   6 C6             3.4863     1.9659    -0.9419 C.ar    
   7 N7             3.4185     3.1880    -1.4008 N.ar    
   8 C8             2.2737     3.8884    -1.4096 C.ar    
   9 C9             1.0792     3.3131    -0.9119 C.ar    
  10 C10            1.1188     1.9924    -0.4078 C.ar    
  11 C11           -0.1020     5.3395    -1.4261 C.ar    
  12 C12            1.0786     5.9026    -1.9159 C.ar    
  13 C13            2.2442     5.1992    -1.9112 C.ar    
  14 O14           -0.9310    -0.4200     0.9977 O.2     
  15 C15           -1.2215     2.0549     0.0990 C.ar    
  16 C16           -2.0948     1.9323    -0.9735 C.ar    
  17 C17           -3.3017     2.6037    -0.9604 C.ar    
  18 C18           -3.6411     3.3987     0.1213 C.ar    
  19 C19           -2.7712     3.5228     1.1921 C.ar    
  20 C20           -1.5664     2.8484     1.1857 C.ar    
  21 C21           -0.1082     4.0537    -0.9260 C.ar    
  22 N22           -1.2888     6.0863    -1.4423 N.pl3   
  23 F23           -4.8221     4.0547     0.1322 F       
  24 C24           -2.4593     5.7296    -2.0320 C.2     
  25 N25           -3.3317     6.6798    -1.8326 N.2     
  26 C26           -2.7624     7.6634    -1.1203 C.2     
  27 C27           -1.4887     7.3116    -0.8608 C.2     
  28 C28           -0.4749     8.1148    -0.0874 C.3     
  29 C29           -4.2497     2.4714    -2.1244 C.3     
  30 F30           -3.6911     1.6234    -3.0867 F       
  31 F31           -5.4631     1.9360    -1.6791 F       
  32 F32           -4.4750     3.7318    -2.6880 F       
  33 H33            1.3306    -1.6016     0.9373 H       
  34 H34            3.3547    -0.5478     0.0641 H       
  35 H35            4.4326     1.4457    -0.9569 H       
  36 H36            1.0666     6.9103    -2.3043 H       
  37 H37            3.1478     5.6506    -2.2936 H       
  38 H38           -1.8303     1.3126    -1.8175 H       
  39 H39           -3.0376     4.1437     2.0346 H       
  40 H40           -0.8883     2.9454     2.0207 H       
  41 H41           -1.0231     3.6215    -0.5485 H       
  42 H42           -2.6380     4.8134    -2.5753 H       
  43 H43           -3.2436     8.5777    -0.8058 H       
  44 H44           -0.5338     7.8536     0.9692 H       
  45 H45            0.5250     7.8942    -0.4611 H       
  46 H46           -0.6826     9.1777    -0.2110 H       
@<TRIPOS>BOND
   1    1    2 am
   2    1   10 1
   3    1   15 1
   4    2    3 1
   5    2   14 2
   6    3    4 2
   7    3   33 1
   8    4    5 1
   9    4   34 1
  10    5    6 ar
  11    5   10 ar
  12    6    7 ar
  13    6   35 1
  14    7    8 ar
  15    8    9 ar
  16    8   13 ar
  17    9   10 ar
  18    9   21 ar
  19   11   12 ar
  20   11   22 1
  21   11   21 ar
  22   12   13 ar
  23   12   36 1
  24   13   37 1
  25   15   16 ar
  26   15   20 ar
  27   16   17 ar
  28   16   38 1
  29   17   18 ar
  30   17   29 1
  31   18   19 ar
  32   18   23 1
  33   19   20 ar
  34   19   39 1
  35   20   40 1
  36   21   41 1
  37   22   24 1
  38   22   27 1
  39   24   25 2
  40   24   42 1
  41   25   26 1
  42   26   27 2
  43   26   43 1
  44   27   28 1
  45   28   44 1
  46   28   45 1
  47   28   46 1
  48   29   30 1
  49   29   31 1
  50   29   32 1

#	End of record

