#	Name: ASD03331390
#	Creating user name:	WinNT
#	Creation time:	15. 06. 2019 20:39

#	Modifying user name:	WinNT
#	Modification time:	15. 06. 2019 20:39

#	Program:	/corina/corina34_cracker 3.40 0067  02.08.2006

@<TRIPOS>MOLECULE
ASD03331390
  73   76    0    0    0
SMALL
NO_CHARGES


@<TRIPOS>ATOM
   1 N1             0.0370     1.3484    -0.3483 N.2     
   2 N2             0.0678    -0.0419    -0.1556 N.am    
   3 C3             1.3649    -0.4258    -0.1149 C.2     
   4 C4             2.1332     0.6799    -0.2739 C.2     
   5 C5             1.2792     1.7832    -0.4198 C.2     
   6 C6             3.6409     0.6420    -0.2788 C.3     
   7 C7             1.9445    -1.8069     0.0674 C.3     
   8 C8             3.4201    -1.7538    -0.3552 C.3     
   9 O9             4.0536    -0.6247     0.2524 O.3     
  10 C10           -1.0036    -0.8503    -0.0325 C.2     
  11 O11           -0.8482    -2.0440     0.1322 O.2     
  12 N12           -2.2473    -0.3345    -0.0920 N.am    
  13 C13           -4.5982    -0.5823    -0.6407 C.2     
  14 C14           -3.4119    -1.2132     0.0418 C.3     
  15 C15           -3.7270    -1.4201     1.5246 C.3     
  16 C16           -5.0229    -2.2215     1.6636 C.3     
  17 O17           -4.6840     0.6252    -0.7144 O.2     
  18 C18           -2.5802    -2.1856     2.1877 C.3     
  19 C19           -3.8931    -0.0599     2.2053 C.3     
  20 N20           -5.5639    -1.3600    -1.1690 N.am    
  21 C21           -6.7793    -0.7607    -1.7377 C.3     
  22 C22           -6.9376    -1.2507    -3.1824 C.3     
  23 N23           -6.7938    -2.7132    -3.2006 N.am    
  24 C24           -5.5783    -3.3125    -2.6320 C.3     
  25 C25           -5.4175    -2.8222    -1.1924 C.3     
  26 S26           -7.9803    -3.6688    -3.8499 S.o2    
  27 O27           -7.8384    -4.9486    -3.2489 O.2     
  28 O28           -9.1815    -2.9118    -3.7921 O.2     
  29 N29           -7.6278    -3.8647    -5.4560 N.am    
  30 C30           -6.7901    -4.9853    -5.8907 C.3     
  31 C31           -8.1536    -2.9175    -6.4422 C.3     
  32 C32            1.7003     3.1919    -0.6194 C.ar    
  33 C33            0.9451     4.0389    -1.4284 C.ar    
  34 C34            1.3411     5.3496    -1.6114 C.ar    
  35 C35            2.4892     5.8218    -0.9909 C.ar    
  36 C36            3.2414     4.9820    -0.1871 C.ar    
  37 C37            2.8486     3.6729     0.0060 C.ar    
  38 F38            2.8742     7.1040    -1.1721 F       
  39 F39            0.6105     6.1724    -2.3952 F       
  40 H40            4.0090     0.7514    -1.2989 H       
  41 H41            4.0318     1.4474     0.3430 H       
  42 H42            1.8703    -2.1036     1.1137 H       
  43 H43            1.4064    -2.5190    -0.5583 H       
  44 H44            3.9222    -2.6670    -0.0355 H       
  45 H45            3.4840    -1.6658    -1.4397 H       
  46 H46           -2.3714     0.6185    -0.2235 H       
  47 H47           -3.1958    -2.1759    -0.4215 H       
  48 H48           -4.8993    -3.1966     1.1924 H       
  49 H49           -5.2557    -2.3554     2.7200 H       
  50 H50           -5.8367    -1.6836     1.1775 H       
  51 H51           -1.6571    -1.6146     2.0887 H       
  52 H52           -2.8048    -2.3329     3.2441 H       
  53 H53           -2.4619    -3.1546     1.7028 H       
  54 H54           -4.7101     0.4855     1.7328 H       
  55 H55           -4.1176    -0.2073     3.2617 H       
  56 H56           -2.9699     0.5111     2.1062 H       
  57 H57           -7.6462    -1.0651    -1.1511 H       
  58 H58           -6.6908     0.3256    -1.7275 H       
  59 H59           -7.9239    -0.9755    -3.5560 H       
  60 H60           -6.1676    -0.7996    -3.8081 H       
  61 H61           -5.6669    -4.3989    -2.6422 H       
  62 H62           -4.7115    -3.0081    -3.2186 H       
  63 H63           -4.4298    -3.0969    -0.8221 H       
  64 H64           -6.1851    -3.2767    -0.5661 H       
  65 H65           -7.4210    -5.8463    -6.1114 H       
  66 H66           -6.2381    -4.7002    -6.7863 H       
  67 H67           -6.0880    -5.2430    -5.0978 H       
  68 H68           -7.4453    -2.0995    -6.5739 H       
  69 H69           -8.3001    -3.4280    -7.3941 H       
  70 H70           -9.1065    -2.5204    -6.0924 H       
  71 H71            0.0520     3.6711    -1.9118 H       
  72 H72            4.1344     5.3533     0.2937 H       
  73 H73            3.4338     3.0206     0.6371 H       
@<TRIPOS>BOND
   1    1    2 1
   2    1    5 2
   3    2    3 1
   4    2   10 am
   5    3    4 2
   6    3    7 1
   7    4    5 1
   8    4    6 1
   9    5   32 1
  10    6    9 1
  11    6   40 1
  12    6   41 1
  13    7    8 1
  14    7   42 1
  15    7   43 1
  16    8    9 1
  17    8   44 1
  18    8   45 1
  19   10   11 2
  20   10   12 am
  21   12   14 1
  22   12   46 1
  23   13   17 2
  24   13   20 am
  25   13   14 1
  26   14   15 1
  27   14   47 1
  28   15   16 1
  29   15   18 1
  30   15   19 1
  31   16   48 1
  32   16   49 1
  33   16   50 1
  34   18   51 1
  35   18   52 1
  36   18   53 1
  37   19   54 1
  38   19   55 1
  39   19   56 1
  40   20   21 1
  41   20   25 1
  42   21   22 1
  43   21   57 1
  44   21   58 1
  45   22   23 1
  46   22   59 1
  47   22   60 1
  48   23   24 1
  49   23   26 am
  50   24   25 1
  51   24   61 1
  52   24   62 1
  53   25   63 1
  54   25   64 1
  55   26   27 2
  56   26   28 2
  57   26   29 am
  58   29   30 1
  59   29   31 1
  60   30   65 1
  61   30   66 1
  62   30   67 1
  63   31   68 1
  64   31   69 1
  65   31   70 1
  66   32   33 ar
  67   32   37 ar
  68   33   34 ar
  69   33   71 1
  70   34   35 ar
  71   34   39 1
  72   35   36 ar
  73   35   38 1
  74   36   37 ar
  75   36   72 1
  76   37   73 1

#	End of record

