#	Name: ASD05503056
#	Creating user name:	WinNT
#	Creation time:	15. 06. 2019 21:01

#	Modifying user name:	WinNT
#	Modification time:	15. 06. 2019 21:01

#	Program:	/corina/corina34_cracker 3.40 0067  02.08.2006

@<TRIPOS>MOLECULE
ASD05503056
  37   38    0    0    0
SMALL
NO_CHARGES


@<TRIPOS>ATOM
   1 C1            -0.0208     1.3776     0.0263 C.ar    
   2 C2             0.0142     0.0054     0.2419 C.ar    
   3 C3             1.2277    -0.6680     0.2214 C.ar    
   4 C4             2.4021     0.0320    -0.0145 C.ar    
   5 C5             2.3601     1.4043    -0.2293 C.ar    
   6 C6             1.1508     2.0716    -0.2083 C.ar    
   7 N7            -1.1704    -0.6954     0.4795 N.am    
   8 S8            -2.5050    -0.4074    -0.4577 S.o2    
   9 N9             3.6269    -0.6427    -0.0355 N.am    
  10 C10            3.6995    -1.8920    -0.5358 C.2     
  11 C11            5.0093    -2.5657    -0.6535 C.ar    
  12 C12            6.1735    -1.9111    -0.2476 C.ar    
  13 C13            7.3931    -2.5459    -0.3597 C.ar    
  14 C14            7.4648    -3.8286    -0.8737 C.ar    
  15 C15            6.3158    -4.4840    -1.2782 C.ar    
  16 C16            5.0877    -3.8630    -1.1663 C.ar    
  17 Br17           3.5177    -4.7604    -1.7190 Br      
  18 O18            2.6874    -2.4647    -0.8902 O.2     
  19 O19           -2.6573     1.0051    -0.4260 O.2     
  20 C20           -2.0205    -0.9583    -2.1167 C.3     
  21 O21           -3.5027    -1.2641     0.0807 O.2     
  22 C22           -3.1841    -0.7412    -3.0862 C.3     
  23 H23           -0.9651     1.9016     0.0377 H       
  24 H24            1.2577    -1.7345     0.3890 H       
  25 H25            3.2740     1.9498    -0.4126 H       
  26 H26            1.1209     3.1381    -0.3759 H       
  27 H27           -1.2113    -1.3508     1.1934 H       
  28 H28            4.4241    -0.2114     0.3100 H       
  29 H29            6.1195    -0.9096     0.1532 H       
  30 H30            8.2943    -2.0402    -0.0459 H       
  31 H31            8.4226    -4.3203    -0.9598 H       
  32 H32            6.3790    -5.4850    -1.6788 H       
  33 H33           -1.1564    -0.3848    -2.4521 H       
  34 H34           -1.7647    -2.0174    -2.0876 H       
  35 H35           -4.0483    -1.3147    -2.7508 H       
  36 H36           -3.4400     0.3179    -3.1153 H       
  37 H37           -2.8930    -1.0723    -4.0831 H       
@<TRIPOS>BOND
   1    1    2 ar
   2    1    6 ar
   3    1   23 1
   4    2    3 ar
   5    2    7 1
   6    3    4 ar
   7    3   24 1
   8    4    5 ar
   9    4    9 1
  10    5    6 ar
  11    5   25 1
  12    6   26 1
  13    7    8 am
  14    7   27 1
  15    8   19 2
  16    8   20 1
  17    8   21 2
  18    9   10 am
  19    9   28 1
  20   10   11 1
  21   10   18 2
  22   11   12 ar
  23   11   16 ar
  24   12   13 ar
  25   12   29 1
  26   13   14 ar
  27   13   30 1
  28   14   15 ar
  29   14   31 1
  30   15   16 ar
  31   15   32 1
  32   16   17 1
  33   20   22 1
  34   20   33 1
  35   20   34 1
  36   22   35 1
  37   22   36 1
  38   22   37 1

#	End of record

