#	Name: ASD00310333
#	Creating user name:	WinNT
#	Creation time:	15. 06. 2019 18:34

#	Modifying user name:	WinNT
#	Modification time:	15. 06. 2019 18:34

#	Program:	/corina/corina34_cracker 3.40 0067  02.08.2006

@<TRIPOS>MOLECULE
ASD00310333
  32   33    0    0    0
SMALL
NO_CHARGES


@<TRIPOS>ATOM
   1 C1            -0.0189     1.5439     0.0105 C.3     
   2 C2             0.0021    -0.0041     0.0020 C.3     
   3 C3            -0.1689    -0.3923     1.4835 C.3     
   4 O4            -0.2257     0.8279     2.2412 O.3     
   5 C5            -0.7266     1.8516     1.3547 C.3     
   6 C6            -0.3377     3.2415     1.8625 C.3     
   7 O7            -1.0122     3.5045     3.0946 O.3     
   8 O8             1.3089     2.0719     0.0007 O.3     
   9 O9            -1.0815    -0.5147    -0.7771 O.3     
  10 N10           -1.4121    -1.1468     1.6604 N.pl3   
  11 C11           -2.6194    -0.6333     2.0338 C.2     
  12 N12           -3.4982    -1.5883     2.0907 N.2     
  13 C13           -2.9026    -2.7657     1.7571 C.2     
  14 C14           -1.5726    -2.4886     1.4758 C.2     
  15 N15           -0.6022    -3.3927     1.0941 N.pl3   
  16 C16           -3.5471    -4.0799     1.7000 C.2     
  17 O17           -2.9001    -5.0621     1.3860 O.2     
  18 N18           -4.8565    -4.2017     1.9951 N.am    
  19 H19           -0.5952     1.9297    -0.8304 H       
  20 H20            0.9545    -0.3706    -0.3809 H       
  21 H21            0.6807    -0.9920     1.8099 H       
  22 H22           -1.8082     1.7701     1.2465 H       
  23 H23            0.7397     3.2816     2.0224 H       
  24 H24           -0.6236     3.9911     1.1246 H       
  25 H25           -0.8123     4.3705     3.4754 H       
  26 H26            1.3480     3.0381     0.0055 H       
  27 H27           -1.0555    -0.2514    -1.7072 H       
  28 H28           -2.8145     0.4069     2.2493 H       
  29 H29           -0.8249    -4.3320     0.9990 H       
  30 H30            0.3026    -3.0889     0.9208 H       
  31 H31           -5.3721    -3.4191     2.2454 H       
  32 H32           -5.2833    -5.0719     1.9573 H       
@<TRIPOS>BOND
   1    1    2 1
   2    1    8 1
   3    1    5 1
   4    1   19 1
   5    2    3 1
   6    2    9 1
   7    2   20 1
   8    3    4 1
   9    3   10 1
  10    3   21 1
  11    4    5 1
  12    5    6 1
  13    5   22 1
  14    6    7 1
  15    6   23 1
  16    6   24 1
  17    7   25 1
  18    8   26 1
  19    9   27 1
  20   10   11 1
  21   10   14 1
  22   11   12 2
  23   11   28 1
  24   12   13 1
  25   13   14 2
  26   13   16 1
  27   14   15 1
  28   15   29 1
  29   15   30 1
  30   16   17 2
  31   16   18 am
  32   18   31 1
  33   18   32 1

#	End of record

