#	Name: ASD01812709
#	Creating user name:	WinNT
#	Creation time:	15. 06. 2019 19:29

#	Modifying user name:	WinNT
#	Modification time:	15. 06. 2019 19:29

#	Program:	/corina/corina34_cracker 3.40 0067  02.08.2006

@<TRIPOS>MOLECULE
ASD01812709
  49   53    0    0    0
SMALL
NO_CHARGES


@<TRIPOS>ATOM
   1 N1            -0.0158     1.3146     0.0093 N.ar    
   2 C2             0.0021    -0.0041     0.0020 C.ar    
   3 C3             1.1989    -0.7034    -0.0132 C.ar    
   4 C4             2.3830    -0.0016    -0.0207 C.ar    
   5 C5             2.3452     1.3975    -0.0128 C.ar    
   6 C6             1.0957     2.0332     0.0025 C.ar    
   7 C7             3.8374    -0.3894    -0.0375 C.3     
   8 N8             4.5957     0.8678    -0.0384 N.am    
   9 C9             3.7284     1.8956    -0.0241 C.2     
  10 C10            6.0561     0.9837    -0.0525 C.3     
  11 C11            6.5424     1.0310    -1.4781 C.ar    
  12 C12            6.6701     2.2482    -2.1226 C.ar    
  13 C13            7.1151     2.2972    -3.4282 C.ar    
  14 C14            7.4359     1.1179    -4.0969 C.ar    
  15 C15            7.3055    -0.1053    -3.4430 C.ar    
  16 C16            6.8650    -0.1425    -2.1355 C.ar    
  17 O17            1.0259     3.3855     0.0104 O.3     
  18 O18            4.0434     3.0700    -0.0214 O.2     
  19 C19            7.9146     1.1645    -5.5013 C.2     
  20 C20            8.2601     0.1019    -6.2851 C.2     
  21 N21            8.0894     2.2620    -6.2590 N.2     
  22 N22            8.5154     1.9016    -7.4178 N.2     
  23 N23            8.6260     0.6213    -7.4787 N.pl3   
  24 C24            9.0787    -0.1444    -8.6427 C.3     
  25 C25           -0.2059     3.9610     0.0253 C.ar    
  26 C26           -0.8244     4.2489     1.2339 C.ar    
  27 C27           -2.0770     4.8341     1.2461 C.ar    
  28 C28           -2.7143     5.1323     0.0558 C.ar    
  29 C29           -2.1014     4.8471    -1.1501 C.ar    
  30 C30           -0.8453     4.2672    -1.1689 C.ar    
  31 F31           -0.2442     3.9936    -2.3475 F       
  32 Cl32          -0.0261     3.8740     2.7292 Cl      
  33 H33           -0.9309    -0.5480     0.0084 H       
  34 H34            1.2022    -1.7834    -0.0186 H       
  35 H35            4.0801    -0.9729     0.8507 H       
  36 H36            4.0620    -0.9633    -0.9365 H       
  37 H37            6.3531     1.8968     0.4632 H       
  38 H38            6.4937     0.1225     0.4523 H       
  39 H39            6.4208     3.1618    -1.6034 H       
  40 H40            7.2141     3.2481    -3.9307 H       
  41 H41            7.5525    -1.0225    -3.9570 H       
  42 H42            6.7680    -1.0898    -1.6261 H       
  43 H43            8.2446    -0.9419    -6.0081 H       
  44 H44            8.2203    -0.4074    -9.2608 H       
  45 H45            9.7752     0.4583    -9.2256 H       
  46 H46            9.5775    -1.0539    -8.3078 H       
  47 H47           -2.5585     5.0582     2.1865 H       
  48 H48           -3.6930     5.5888     0.0682 H       
  49 H49           -2.6016     5.0812    -2.0783 H       
@<TRIPOS>BOND
   1    1    2 ar
   2    1    6 ar
   3    2    3 ar
   4    2   33 1
   5    3    4 ar
   6    3   34 1
   7    4    7 1
   8    4    5 ar
   9    5    6 ar
  10    5    9 1
  11    6   17 1
  12    7    8 1
  13    7   35 1
  14    7   36 1
  15    8    9 am
  16    8   10 1
  17    9   18 2
  18   10   11 1
  19   10   37 1
  20   10   38 1
  21   11   12 ar
  22   11   16 ar
  23   12   13 ar
  24   12   39 1
  25   13   14 ar
  26   13   40 1
  27   14   15 ar
  28   14   19 1
  29   15   16 ar
  30   15   41 1
  31   16   42 1
  32   17   25 1
  33   19   21 1
  34   19   20 2
  35   20   23 1
  36   20   43 1
  37   21   22 2
  38   22   23 1
  39   23   24 1
  40   24   44 1
  41   24   45 1
  42   24   46 1
  43   25   26 ar
  44   25   30 ar
  45   26   27 ar
  46   26   32 1
  47   27   28 ar
  48   27   47 1
  49   28   29 ar
  50   28   48 1
  51   29   30 ar
  52   29   49 1
  53   30   31 1

#	End of record

