#	Name: ASD01911334
#	Creating user name:	WinNT
#	Creation time:	15. 06. 2019 19:57

#	Modifying user name:	WinNT
#	Modification time:	15. 06. 2019 19:57

#	Program:	/corina/corina34_cracker 3.40 0067  02.08.2006

@<TRIPOS>MOLECULE
ASD01911334
  40   42    0    0    0
SMALL
NO_CHARGES


@<TRIPOS>ATOM
   1 N1            -0.0070     1.4095    -0.0033 N.2     
   2 N2            -0.0071     0.0096    -0.0453 N.pl3   
   3 C3             1.2423     1.8243     0.0384 C.2     
   4 C4             2.0820     0.6976     0.0242 C.2     
   5 C5             1.2900    -0.4115    -0.0277 C.2     
   6 C6             1.7537    -1.8166    -0.0586 C.ar    
   7 C7             1.6869     3.2389     0.0909 C.ar    
   8 C8             0.7396     4.2602     0.0995 C.ar    
   9 C9            -1.1917    -0.8507    -0.0984 C.3     
  10 C10           -1.6291    -1.0154    -1.5311 C.2     
  11 O11           -2.7015    -1.7679    -1.8231 O.3     
  12 O12           -1.0144    -0.4701    -2.4169 O.2     
  13 C13           -3.0650    -1.8820    -3.2243 C.3     
  14 C14            0.9284    -2.8153    -0.5757 C.ar    
  15 C15            1.1681     5.5751     0.1491 C.ar    
  16 C16            2.5342     5.8261     0.1885 C.ar    
  17 C17            3.4200     4.7613     0.1772 C.ar    
  18 N18            2.9828     3.5193     0.1347 N.ar    
  19 C19            1.3665    -4.1234    -0.6018 C.ar    
  20 C20            2.6213    -4.4455    -0.1164 C.ar    
  21 C21            3.4443    -3.4597     0.3981 C.ar    
  22 C22            3.0201    -2.1469     0.4240 C.ar    
  23 F23            2.9938     7.0956     0.2370 F       
  24 C24            4.9028     5.0268     0.2198 C.3     
  25 H25            3.1617     0.7081     0.0497 H       
  26 H26           -0.3148     4.0290     0.0675 H       
  27 H27           -0.9509    -1.8269     0.3225 H       
  28 H28           -1.9974    -0.3955     0.4774 H       
  29 H29           -3.2840    -0.8921    -3.6246 H       
  30 H30           -2.2375    -2.3235    -3.7795 H       
  31 H31           -3.9464    -2.5160    -3.3205 H       
  32 H32           -0.0515    -2.5651    -0.9546 H       
  33 H33            0.4569     6.3878     0.1565 H       
  34 H34            0.7283    -4.8976    -1.0016 H       
  35 H35            2.9597    -5.4709    -0.1390 H       
  36 H36            4.4225    -3.7175     0.7762 H       
  37 H37            3.6636    -1.3781     0.8256 H       
  38 H38            5.2363     5.0599     1.2570 H       
  39 H39            5.4297     4.2306    -0.3060 H       
  40 H40            5.1149     5.9819    -0.2607 H       
@<TRIPOS>BOND
   1    1    2 1
   2    1    3 2
   3    2    9 1
   4    2    5 1
   5    3    4 1
   6    3    7 1
   7    4    5 2
   8    4   25 1
   9    5    6 1
  10    6   14 ar
  11    6   22 ar
  12    7    8 ar
  13    7   18 ar
  14    8   15 ar
  15    8   26 1
  16    9   10 1
  17    9   27 1
  18    9   28 1
  19   10   11 1
  20   10   12 2
  21   11   13 1
  22   13   29 1
  23   13   30 1
  24   13   31 1
  25   14   19 ar
  26   14   32 1
  27   15   16 ar
  28   15   33 1
  29   16   17 ar
  30   16   23 1
  31   17   18 ar
  32   17   24 1
  33   19   20 ar
  34   19   34 1
  35   20   21 ar
  36   20   35 1
  37   21   22 ar
  38   21   36 1
  39   22   37 1
  40   24   38 1
  41   24   39 1
  42   24   40 1

#	End of record

