#	Name: ASD03331807
#	Creating user name:	WinNT
#	Creation time:	15. 06. 2019 20:39

#	Modifying user name:	WinNT
#	Modification time:	15. 06. 2019 20:39

#	Program:	/corina/corina34_cracker 3.40 0067  02.08.2006

@<TRIPOS>MOLECULE
ASD03331807
  64   66    0    0    0
SMALL
NO_CHARGES


@<TRIPOS>ATOM
   1 C1             0.6600     1.9233     0.2576 C.2     
   2 N2             0.8775     0.5838     0.3273 N.pl3   
   3 C3            -0.3123    -0.0108     0.6127 C.2     
   4 N4            -1.2324     0.9249     0.7131 N.2     
   5 C5            -0.6586     2.1308     0.5013 C.2     
   6 C6             1.7409     2.9316    -0.0359 C.3     
   7 N7             3.0445     2.2692     0.1503 N.3     
   8 C8             3.0980     0.9907    -0.5727 C.3     
   9 C9             2.1895    -0.0348     0.1175 C.3     
  10 C10            4.1462     3.1511    -0.2575 C.3     
  11 C11           -1.3435     3.4355     0.5247 C.2     
  12 O12           -0.7149     4.4561     0.3183 O.2     
  13 N13           -2.6663     3.4978     0.7748 N.am    
  14 C14           -3.3472     4.7948     0.7980 C.3     
  15 C15           -4.5812     4.6990     1.6577 C.2     
  16 C16           -3.7468     5.1865    -0.6260 C.3     
  17 C17           -4.6775     4.1198    -1.2062 C.3     
  18 C18           -4.4698     6.5347    -0.6002 C.3     
  19 C19           -2.4928     5.2969    -1.4956 C.3     
  20 O20           -5.0933     3.6194     1.8654 O.2     
  21 N21           -5.1158     5.8131     2.1957 N.am    
  22 C22           -6.2589     5.7110     3.1063 C.3     
  23 C23           -0.5335    -1.4571     0.7805 C.2     
  24 C24           -1.7674    -1.8801     0.9391 C.2     
  25 C25           -2.1380    -3.3220     1.1302 C.3     
  26 C26           -0.9821    -4.2251     0.6947 C.3     
  27 C27            0.3051    -3.7232     1.3604 C.3     
  28 C28            0.6631    -2.3629     0.7544 C.3     
  29 C29           -1.2606    -5.6640     1.1338 C.3     
  30 H30            1.6490     3.2815    -1.0641 H       
  31 H31            1.6547     3.7744     0.6499 H       
  32 H32            2.7617     1.1403    -1.5987 H       
  33 H33            4.1232     0.6205    -0.5788 H       
  34 H34            2.6196    -0.3196     1.0777 H       
  35 H35            2.0835    -0.9164    -0.5146 H       
  36 H36            4.1266     4.0594     0.3448 H       
  37 H37            5.0963     2.6377    -0.1098 H       
  38 H38            4.0333     3.4107    -1.3101 H       
  39 H39           -3.1676     2.6839     0.9394 H       
  40 H40           -2.6765     5.5499     1.2079 H       
  41 H41           -5.5709     4.0412    -0.5868 H       
  42 H42           -4.9623     4.3989    -2.2207 H       
  43 H43           -4.1625     3.1593    -1.2246 H       
  44 H44           -3.7746     7.3138    -0.2874 H       
  45 H45           -4.8476     6.7635    -1.5967 H       
  46 H46           -5.3022     6.4872     0.1019 H       
  47 H47           -1.9778     4.3364    -1.5140 H       
  48 H48           -2.7775     5.5760    -2.5100 H       
  49 H49           -1.8297     6.0568    -1.0822 H       
  50 H50           -4.7436     6.6825     1.9801 H       
  51 H51           -7.0951     5.2413     2.5884 H       
  52 H52           -5.9819     5.1078     3.9709 H       
  53 H53           -6.5501     6.7080     3.4371 H       
  54 H54           -2.5610    -1.1477     0.9318 H       
  55 H55           -2.3603    -3.5015     2.1821 H       
  56 H56           -3.0202    -3.5506     0.5324 H       
  57 H57           -0.8739    -4.1843    -0.3891 H       
  58 H58            0.1460    -3.6195     2.4337 H       
  59 H59            1.1135    -4.4302     1.1739 H       
  60 H60            0.9962    -2.5018    -0.2741 H       
  61 H61            1.4669    -1.9092     1.3343 H       
  62 H62           -2.1851    -6.0120     0.6731 H       
  63 H63           -0.4358    -6.3050     0.8223 H       
  64 H64           -1.3592    -5.7003     2.2187 H       
@<TRIPOS>BOND
   1    1    2 1
   2    1    6 1
   3    1    5 2
   4    2    3 1
   5    2    9 1
   6    3    4 2
   7    3   23 1
   8    4    5 1
   9    5   11 1
  10    6    7 1
  11    6   30 1
  12    6   31 1
  13    7    8 1
  14    7   10 1
  15    8    9 1
  16    8   32 1
  17    8   33 1
  18    9   34 1
  19    9   35 1
  20   10   36 1
  21   10   37 1
  22   10   38 1
  23   11   12 2
  24   11   13 am
  25   13   14 1
  26   13   39 1
  27   14   15 1
  28   14   16 1
  29   14   40 1
  30   15   20 2
  31   15   21 am
  32   16   17 1
  33   16   18 1
  34   16   19 1
  35   17   41 1
  36   17   42 1
  37   17   43 1
  38   18   44 1
  39   18   45 1
  40   18   46 1
  41   19   47 1
  42   19   48 1
  43   19   49 1
  44   21   22 1
  45   21   50 1
  46   22   51 1
  47   22   52 1
  48   22   53 1
  49   23   24 2
  50   23   28 1
  51   24   25 1
  52   24   54 1
  53   25   26 1
  54   25   55 1
  55   25   56 1
  56   26   27 1
  57   26   29 1
  58   26   57 1
  59   27   28 1
  60   27   58 1
  61   27   59 1
  62   28   60 1
  63   28   61 1
  64   29   62 1
  65   29   63 1
  66   29   64 1

#	End of record

