#	Name: ASD01940039
#	Creating user name:	WinNT
#	Creation time:	15. 06. 2019 20:11

#	Modifying user name:	WinNT
#	Modification time:	15. 06. 2019 20:11

#	Program:	/corina/corina34_cracker 3.40 0067  02.08.2006

@<TRIPOS>MOLECULE
ASD01940039
  47   49    0    0    0
SMALL
NO_CHARGES


@<TRIPOS>ATOM
   1 C1             0.1278     1.3819     0.1184 C.ar    
   2 C2             0.0740     0.1539    -0.5276 C.ar    
   3 C3            -1.0932    -0.5850    -0.5115 C.ar    
   4 C4            -2.2119    -0.1012     0.1491 C.ar    
   5 C5            -2.1600     1.1276     0.7962 C.ar    
   6 C6            -0.9908     1.8647     0.7859 C.ar    
   7 N7             1.3101     2.1302     0.1020 N.pl3   
   8 C8             1.2538     3.5115     0.0518 C.2     
   9 C9             2.3146     4.4006     0.1502 C.2     
  10 C10            1.9314     5.7398     0.0625 C.2     
  11 N11            0.6649     5.9782    -0.0958 N.2     
  12 S12           -0.1451     4.4910    -0.1531 S.3     
  13 O13            2.8403     6.7463     0.1395 O.3     
  14 C14            3.7112     3.9721     0.3307 C.2     
  15 N15            4.2239     3.8092     1.6008 N.pl3   
  16 N16            4.4654     3.7460    -0.7124 N.2     
  17 C17            5.6139     3.3827     1.7805 C.3     
  18 C18            6.5334     4.6043     1.7247 C.3     
  19 C19            5.7643     2.6927     3.1378 C.3     
  20 O20            5.5207     3.6374     4.1820 O.3     
  21 O21           -3.3607    -0.8292     0.1635 O.3     
  22 C22           -4.3418    -0.4903    -0.7137 C.ar    
  23 C23           -5.5736    -1.1277    -0.6586 C.ar    
  24 C24           -6.5719    -0.7809    -1.5533 C.ar    
  25 C25           -6.3414     0.2004    -2.5022 C.ar    
  26 C26           -4.1152     0.4972    -1.6615 C.ar    
  27 C27           -5.1129     0.8369    -2.5580 C.ar    
  28 Cl28          -5.8621    -2.3590     0.5306 Cl      
  29 F29           -7.7711    -1.4008    -1.5004 F       
  30 F30           -4.8900     1.7939    -3.4851 F       
  31 F31           -3.2505     1.5991     1.4395 F       
  32 H32            0.9448    -0.2234    -1.0430 H       
  33 H33           -1.1342    -1.5400    -1.0142 H       
  34 H34           -0.9496     2.8196     1.2889 H       
  35 H35            2.1692     1.6804     0.1257 H       
  36 H36            3.2083     7.0102    -0.7149 H       
  37 H37            3.6641     3.9770     2.3750 H       
  38 H38            5.3857     3.4636    -0.5935 H       
  39 H39            5.8858     2.6866     0.9870 H       
  40 H40            6.2614     5.3003     2.5182 H       
  41 H41            7.5676     4.2870     1.8584 H       
  42 H42            6.4263     5.0958     0.7577 H       
  43 H43            5.0461     1.8761     3.2119 H       
  44 H44            6.7754     2.2972     3.2343 H       
  45 H45            5.5990     3.2685     5.0724 H       
  46 H46           -7.1206     0.4696    -3.2000 H       
  47 H47           -3.1588     0.9971    -1.7027 H       
@<TRIPOS>BOND
   1    1    2 ar
   2    1    7 1
   3    1    6 ar
   4    2    3 ar
   5    2   32 1
   6    3    4 ar
   7    3   33 1
   8    4    5 ar
   9    4   21 1
  10    5    6 ar
  11    5   31 1
  12    6   34 1
  13    7    8 1
  14    7   35 1
  15    8    9 2
  16    8   12 1
  17    9   10 1
  18    9   14 1
  19   10   11 2
  20   10   13 1
  21   11   12 1
  22   13   36 1
  23   14   15 1
  24   14   16 2
  25   15   17 1
  26   15   37 1
  27   16   38 1
  28   17   18 1
  29   17   19 1
  30   17   39 1
  31   18   40 1
  32   18   41 1
  33   18   42 1
  34   19   20 1
  35   19   43 1
  36   19   44 1
  37   20   45 1
  38   21   22 1
  39   22   23 ar
  40   22   26 ar
  41   23   24 ar
  42   23   28 1
  43   24   25 ar
  44   24   29 1
  45   25   27 ar
  46   25   46 1
  47   26   27 ar
  48   26   47 1
  49   27   30 1

#	End of record

