#	Name: ASD01028544
#	Creating user name:	WinNT
#	Creation time:	15. 06. 2019 18:57

#	Modifying user name:	WinNT
#	Modification time:	15. 06. 2019 18:57

#	Program:	/corina/corina34_cracker 3.40 0067  02.08.2006

@<TRIPOS>MOLECULE
ASD01028544
  53   58    0    0    0
SMALL
NO_CHARGES


@<TRIPOS>ATOM
   1 N1            -0.0169     1.3921     0.0097 N.2     
   2 N2             0.0021    -0.0041     0.0020 N.pl3   
   3 C3             1.1073     2.0742     0.0026 C.2     
   4 C4             2.3534     1.4121    -0.0128 C.2     
   5 C5             2.4034     0.0542    -0.0210 C.2     
   6 C6             1.2001    -0.6769    -0.0130 C.2     
   7 N7             0.9139    -1.9687    -0.0179 N.2     
   8 N8            -0.3645    -2.1206    -0.0060 N.2     
   9 C9            -0.9587    -0.9533     0.0061 C.2     
  10 C10           -2.4463    -0.7128     0.0223 C.3     
  11 C11            1.0650     3.5570     0.0105 C.2     
  12 N12           -2.9146    -0.6427     1.4087 N.pl3   
  13 C13           -4.2585    -0.4265     1.6768 C.ar    
  14 C14           -5.1753    -0.2740     0.6499 C.ar    
  15 C15           -6.5144    -0.0586     0.9474 C.ar    
  16 N16           -6.9448     0.0064     2.1860 N.ar    
  17 C17           -6.1148    -0.1321     3.2252 C.ar    
  18 C18           -4.7354    -0.3608     3.0094 C.ar    
  19 C19           -6.5904    -0.0607     4.5477 C.ar    
  20 C20           -5.6897    -0.2109     5.5692 C.ar    
  21 C21           -4.3386    -0.4285     5.2798 C.ar    
  22 N22           -3.9063    -0.5004     4.0448 N.ar    
  23 O23           -6.1079    -0.1481     6.8603 O.3     
  24 C24            2.1778     4.4223     0.0040 C.2     
  25 N25            1.7363     5.6521     0.0145 N.2     
  26 N26            0.3366     5.6230     0.0280 N.pl3   
  27 C27           -0.0588     4.3323     0.0194 C.2     
  28 C28           -5.1135    -0.3135     7.8731 C.3     
  29 C29           -0.5084     6.7411     0.0419 C.ar    
  30 C30            0.0308     8.0206     0.0426 C.ar    
  31 C31           -1.8864     6.5716     0.0493 C.ar    
  32 C32           -2.7165     7.6754     0.0625 C.ar    
  33 C33           -2.1765     8.9484     0.0684 C.ar    
  34 C34           -0.8045     9.1205     0.0558 C.ar    
  35 H35            3.2687     1.9855    -0.0185 H       
  36 H36            3.3542    -0.4579    -0.0336 H       
  37 H37           -2.6680     0.2267    -0.4840 H       
  38 H38           -2.9522    -1.5304    -0.4912 H       
  39 H39           -2.2850    -0.7475     2.1391 H       
  40 H40           -4.8498    -0.3221    -0.3787 H       
  41 H41           -7.2204     0.0589     0.1386 H       
  42 H42           -7.6373     0.1084     4.7521 H       
  43 H43           -3.6369    -0.5456     6.0924 H       
  44 H44            3.2149     4.1211    -0.0074 H       
  45 H45           -1.0787     3.9773     0.0261 H       
  46 H46           -4.6435    -1.2910     7.7647 H       
  47 H47           -4.3584     0.4660     7.7716 H       
  48 H48           -5.5801    -0.2416     8.8556 H       
  49 H49            1.1023     8.1557     0.0331 H       
  50 H50           -2.3088     5.5777     0.0443 H       
  51 H51           -3.7885     7.5442     0.0678 H       
  52 H52           -2.8276     9.8100     0.0783 H       
  53 H53           -0.3856    10.1160     0.0608 H       
@<TRIPOS>BOND
   1    1    2 1
   2    1    3 2
   3    2    6 1
   4    2    9 1
   5    3    4 1
   6    3   11 1
   7    4    5 2
   8    4   35 1
   9    5    6 1
  10    5   36 1
  11    6    7 2
  12    7    8 1
  13    8    9 2
  14    9   10 1
  15   10   12 1
  16   10   37 1
  17   10   38 1
  18   11   24 1
  19   11   27 2
  20   12   13 1
  21   12   39 1
  22   13   14 ar
  23   13   18 ar
  24   14   15 ar
  25   14   40 1
  26   15   16 ar
  27   15   41 1
  28   16   17 ar
  29   17   18 ar
  30   17   19 ar
  31   18   22 ar
  32   19   20 ar
  33   19   42 1
  34   20   21 ar
  35   20   23 1
  36   21   22 ar
  37   21   43 1
  38   23   28 1
  39   24   25 2
  40   24   44 1
  41   25   26 1
  42   26   27 1
  43   26   29 1
  44   27   45 1
  45   28   46 1
  46   28   47 1
  47   28   48 1
  48   29   30 ar
  49   29   31 ar
  50   30   34 ar
  51   30   49 1
  52   31   32 ar
  53   31   50 1
  54   32   33 ar
  55   32   51 1
  56   33   34 ar
  57   33   52 1
  58   34   53 1

#	End of record

