#	Name: ASD03731335
#	Creating user name:	WinNT
#	Creation time:	15. 06. 2019 20:45

#	Modifying user name:	WinNT
#	Modification time:	15. 06. 2019 20:45

#	Program:	/corina/corina34_cracker 3.40 0067  02.08.2006

@<TRIPOS>MOLECULE
ASD03731335
  65   71    0    0    0
SMALL
NO_CHARGES


@<TRIPOS>ATOM
   1 C1            -0.0180     1.4742     0.0101 C.2     
   2 C2             0.0021    -0.0041     0.0020 C.ar    
   3 C3             1.2184    -0.6885    -0.0133 C.ar    
   4 C4             1.2301    -2.0680    -0.0203 C.ar    
   5 C5             0.0396    -2.7730    -0.0127 C.ar    
   6 C6            -1.1695    -2.1007     0.0024 C.ar    
   7 C7            -1.1952    -0.7214     0.0154 C.ar    
   8 O8             1.0263     2.0963     0.0035 O.2     
   9 N9            -1.1942     2.1322     0.0193 N.am    
  10 C10           -1.2141     3.5970     0.0274 C.3     
  11 C11           -2.6415     4.0800     0.0368 C.ar    
  12 C12           -3.3574     4.0982     1.2194 C.ar    
  13 C13           -4.6666     4.5411     1.2280 C.ar    
  14 C14           -5.2602     4.9664     0.0540 C.ar    
  15 C15           -4.5443     4.9490    -1.1281 C.ar    
  16 C16           -3.2333     4.5101    -1.1359 C.ar    
  17 C17           -2.7103     3.6346     2.4991 C.3     
  18 F18           -3.6257     3.7455     3.5512 F       
  19 F19           -2.3141     2.2997     2.3643 F       
  20 F20           -1.5905     4.4284     2.7696 F       
  21 C21            0.0601    -4.2798    -0.0215 C.3     
  22 O22           -2.0563    -1.5348     6.2775 O.3     
  23 C23           -2.2837    -1.6203     7.6967 C.3     
  24 O24           -2.7818    -2.9582     7.8836 O.3     
  25 C25           -2.2564    -3.6908     6.8579 C.ar    
  26 C26           -1.8113    -2.8150     5.8702 C.ar    
  27 C27           -2.1186    -5.0563     6.6848 C.ar    
  28 C28           -1.5385    -5.5652     5.5267 C.ar    
  29 C29           -1.1053    -4.6808     4.5435 C.ar    
  30 C30           -1.2356    -3.3185     4.7159 C.ar    
  31 O31           -1.2955    -6.8588     5.1692 O.3     
  32 C32           -0.5594    -5.5216     3.4206 C.3     
  33 C33           -1.0841    -6.9267     3.7458 C.3     
  34 N34            0.0802    -4.7759     1.3568 N.am    
  35 C35           -1.0278    -5.0465     2.0754 C.2     
  36 C36            0.9387    -5.4848     3.3560 C.ar    
  37 C37            1.9375    -5.7964     4.2513 C.ar    
  38 C38            3.2644    -5.6548     3.8860 C.ar    
  39 C39            3.5850    -5.1990     2.6202 C.ar    
  40 C40            2.5881    -4.8847     1.7202 C.ar    
  41 C41            1.2497    -5.0246     2.0792 C.ar    
  42 O42           -2.1775    -4.9294     1.7074 O.2     
  43 H43            2.1484    -0.1393    -0.0199 H       
  44 H44            2.1706    -2.5988    -0.0321 H       
  45 H45           -2.0953    -2.6569     0.0083 H       
  46 H46           -2.1396    -0.1978     0.0318 H       
  47 H47           -2.0276     1.6358     0.0206 H       
  48 H48           -0.7010     3.9625     0.9169 H       
  49 H49           -0.7094     3.9721    -0.8630 H       
  50 H50           -5.2260     4.5546     2.1518 H       
  51 H51           -6.2835     5.3118     0.0606 H       
  52 H52           -5.0082     5.2809    -2.0452 H       
  53 H53           -2.6727     4.5000    -2.0590 H       
  54 H54           -0.8299    -4.6523    -0.5288 H       
  55 H55            0.9498    -4.6281    -0.5460 H       
  56 H56           -1.3511    -1.4791     8.2431 H       
  57 H57           -3.0272    -0.8875     8.0102 H       
  58 H58           -2.4636    -5.7319     7.4534 H       
  59 H59           -0.8881    -2.6428     3.9484 H       
  60 H60           -0.3397    -7.6843     3.5007 H       
  61 H61           -2.0214    -7.1203     3.2241 H       
  62 H62            1.6849    -6.1520     5.2393 H       
  63 H63            4.0481    -5.9000     4.5876 H       
  64 H64            4.6208    -5.0884     2.3351 H       
  65 H65            2.8463    -4.5288     0.7338 H       
@<TRIPOS>BOND
   1    1    2 1
   2    1    8 2
   3    1    9 am
   4    2    3 ar
   5    2    7 ar
   6    3    4 ar
   7    3   43 1
   8    4    5 ar
   9    4   44 1
  10    5    6 ar
  11    5   21 1
  12    6    7 ar
  13    6   45 1
  14    7   46 1
  15    9   10 1
  16    9   47 1
  17   10   11 1
  18   10   48 1
  19   10   49 1
  20   11   12 ar
  21   11   16 ar
  22   12   13 ar
  23   12   17 1
  24   13   14 ar
  25   13   50 1
  26   14   15 ar
  27   14   51 1
  28   15   16 ar
  29   15   52 1
  30   16   53 1
  31   17   18 1
  32   17   19 1
  33   17   20 1
  34   21   34 1
  35   21   54 1
  36   21   55 1
  37   22   23 1
  38   22   26 1
  39   23   24 1
  40   23   56 1
  41   23   57 1
  42   24   25 1
  43   25   26 ar
  44   25   27 ar
  45   26   30 ar
  46   27   28 ar
  47   27   58 1
  48   28   29 ar
  49   28   31 1
  50   29   30 ar
  51   29   32 1
  52   30   59 1
  53   31   33 1
  54   32   33 1
  55   32   35 1
  56   32   36 1
  57   33   60 1
  58   33   61 1
  59   34   35 am
  60   34   41 1
  61   35   42 2
  62   36   37 ar
  63   36   41 ar
  64   37   38 ar
  65   37   62 1
  66   38   39 ar
  67   38   63 1
  68   39   40 ar
  69   39   64 1
  70   40   41 ar
  71   40   65 1

#	End of record

