#	Name: ASD05730071
#	Creating user name:	WinNT
#	Creation time:	15. 06. 2019 21:02

#	Modifying user name:	WinNT
#	Modification time:	15. 06. 2019 21:02

#	Program:	/corina/corina34_cracker 3.40 0067  02.08.2006

@<TRIPOS>MOLECULE
ASD05730071
  80   86    0    0    0
SMALL
NO_CHARGES


@<TRIPOS>ATOM
   1 N1             0.0233     1.3973    -0.0192 N.3     
   2 C2             0.0324    -0.0037    -0.0196 C.ar    
   3 C3             0.0475    -0.6979     1.1818 C.ar    
   4 C4             0.0561    -2.0795     1.1818 C.ar    
   5 C5             0.0496    -2.7744    -0.0200 C.ar    
   6 C6             0.0345    -2.0810    -1.2235 C.ar    
   7 C7             0.0206    -0.6991    -1.2242 C.ar    
   8 N8             0.0587    -4.1750    -0.0189 N.pl3   
   9 C9            -0.6273    -4.8708    -0.9951 C.ar    
  10 N10           -0.5115    -6.1894    -1.0391 N.ar    
  11 C11           -1.1562    -6.8929    -1.9630 C.ar    
  12 C12           -1.9656    -6.2074    -2.8949 C.ar    
  13 C13           -2.0552    -4.8101    -2.8062 C.ar    
  14 N14           -1.3834    -4.1933    -1.8521 N.ar    
  15 N15           -1.0417    -8.2591    -2.0163 N.am    
  16 C16           -1.6971    -8.9674    -2.9560 C.2     
  17 C17           -2.5444    -8.2874    -3.9378 C.2     
  18 C18           -2.6663    -6.9244    -3.8913 C.2     
  19 C19           -0.1975    -8.9544    -1.0416 C.3     
  20 C20           -1.0356    -9.9574    -0.2176 C.3     
  21 O21           -1.5840   -10.1798    -2.9894 O.2     
  22 C22           -3.2646    -9.0674    -4.9713 C.ar    
  23 C23           -1.2057     1.9158     0.5974 C.3     
  24 C24           -4.6400    -9.2772    -4.8593 C.ar    
  25 C25           -5.3050   -10.0051    -5.8260 C.ar    
  26 C26           -4.6106   -10.5256    -6.9034 C.ar    
  27 C27           -3.2475   -10.3207    -7.0193 C.ar    
  28 C28           -2.5723    -9.5901    -6.0627 C.ar    
  29 Cl29          -5.5123    -8.6250    -3.5075 Cl      
  30 S30           -5.4659   -11.4539    -8.1327 S.o2    
  31 O31           -6.5936   -11.9843    -7.4499 O.2     
  32 C32           -5.9850   -10.2173    -9.3541 C.3     
  33 C33           -6.8544   -10.8865   -10.4232 C.3     
  34 C34           -6.8010    -9.1225    -8.6599 C.3     
  35 C35            1.2140     1.9315     0.6565 C.3     
  36 C36            1.2062     3.4594     0.5658 C.3     
  37 N37           -0.0228     3.9778     1.1825 N.3     
  38 C38           -1.2135     3.4436     0.5068 C.3     
  39 F39            0.0055    -0.0239    -2.3943 F       
  40 C40            0.8447    -9.8386    -1.7615 C.3     
  41 O41            0.9514   -11.0239    -0.9431 O.3     
  42 C42           -0.4006   -11.3289    -0.5371 C.3     
  43 O43           -4.4722   -12.3093    -8.6805 O.2     
  44 C44           -7.3008    -8.1264    -9.7095 C.3     
  45 O45           -8.0763    -8.8186   -10.6901 O.3     
  46 C46           -7.3521    -9.8222   -11.4046 C.3     
  47 H47            0.0529    -0.1580     2.1172 H       
  48 H48            0.0681    -2.6191     2.1172 H       
  49 H49            0.0298    -2.6217    -2.1584 H       
  50 H50            0.5468    -4.6563     0.6674 H       
  51 H51           -2.6644    -4.2513    -3.5013 H       
  52 H52           -3.2867    -6.4048    -4.6065 H       
  53 H53            0.2951    -8.2378    -0.3844 H       
  54 H54           -0.9554    -9.7381     0.8471 H       
  55 H55           -2.0781    -9.9358    -0.5354 H       
  56 H56           -2.0729     1.5159     0.0719 H       
  57 H57           -1.2430     1.6134     1.6440 H       
  58 H58           -6.3692   -10.1687    -5.7407 H       
  59 H59           -2.7111   -10.7297    -7.8628 H       
  60 H60           -1.5081    -9.4307    -6.1551 H       
  61 H61           -5.1054    -9.7764    -9.8230 H       
  62 H62           -6.2644   -11.6294   -10.9598 H       
  63 H63           -7.7073   -11.3712    -9.9481 H       
  64 H64           -7.6528    -9.5716    -8.1492 H       
  65 H65           -6.1729    -8.6040    -7.9356 H       
  66 H66            1.2042     1.6293     1.7037 H       
  67 H67            2.1109     1.5432     0.1739 H       
  68 H68            2.0734     3.8592     1.0914 H       
  69 H69            1.2435     3.7618    -0.4807 H       
  70 H70           -0.0456     3.7738     2.1704 H       
  71 H71           -1.2037     3.7458    -0.5404 H       
  72 H72           -2.1104     3.8320     0.9894 H       
  73 H73            0.4966   -10.0980    -2.7613 H       
  74 H74            1.8053    -9.3262    -1.8143 H       
  75 H75           -0.3966   -11.9613     0.3507 H       
  76 H76           -0.9397   -11.8167    -1.3491 H       
  77 H77           -7.9179    -7.3686    -9.2267 H       
  78 H78           -6.4483    -7.6480   -10.1917 H       
  79 H79           -6.5002    -9.3660   -11.9090 H       
  80 H80           -8.0061   -10.2861   -12.1430 H       
@<TRIPOS>BOND
   1    1    2 1
   2    1   35 1
   3    1   23 1
   4    2    3 ar
   5    2    7 ar
   6    3    4 ar
   7    3   47 1
   8    4    5 ar
   9    4   48 1
  10    5    6 ar
  11    5    8 1
  12    6    7 ar
  13    6   49 1
  14    7   39 1
  15    8    9 1
  16    8   50 1
  17    9   10 ar
  18    9   14 ar
  19   10   11 ar
  20   11   12 ar
  21   11   15 1
  22   12   13 ar
  23   12   18 1
  24   13   14 ar
  25   13   51 1
  26   15   16 am
  27   15   19 1
  28   16   17 1
  29   16   21 2
  30   17   18 2
  31   17   22 1
  32   18   52 1
  33   19   20 1
  34   19   40 1
  35   19   53 1
  36   20   42 1
  37   20   54 1
  38   20   55 1
  39   22   24 ar
  40   22   28 ar
  41   23   38 1
  42   23   56 1
  43   23   57 1
  44   24   25 ar
  45   24   29 1
  46   25   26 ar
  47   25   58 1
  48   26   27 ar
  49   26   30 1
  50   27   28 ar
  51   27   59 1
  52   28   60 1
  53   30   31 2
  54   30   32 1
  55   30   43 2
  56   32   33 1
  57   32   34 1
  58   32   61 1
  59   33   46 1
  60   33   62 1
  61   33   63 1
  62   34   44 1
  63   34   64 1
  64   34   65 1
  65   35   36 1
  66   35   66 1
  67   35   67 1
  68   36   37 1
  69   36   68 1
  70   36   69 1
  71   37   38 1
  72   37   70 1
  73   38   71 1
  74   38   72 1
  75   40   41 1
  76   40   73 1
  77   40   74 1
  78   41   42 1
  79   42   75 1
  80   42   76 1
  81   44   45 1
  82   44   77 1
  83   44   78 1
  84   45   46 1
  85   46   79 1
  86   46   80 1

#	End of record

