#	Name: ASD03090598
#	Creating user name:	WinNT
#	Creation time:	15. 06. 2019 20:29

#	Modifying user name:	WinNT
#	Modification time:	15. 06. 2019 20:29

#	Program:	/corina/corina34_cracker 3.40 0067  02.08.2006

@<TRIPOS>MOLECULE
ASD03090598
  32   33    0    0    0
SMALL
NO_CHARGES


@<TRIPOS>ATOM
   1 N1            -0.0162     1.3436     0.0094 N.am    
   2 C2             0.0191     0.1476     0.6298 C.2     
   3 O3             1.0725    -0.2856     1.0556 O.2     
   4 N4            -1.1132    -0.5682     0.7783 N.am    
   5 S5            -2.4637    -2.8539     1.6901 S.3     
   6 C6            -1.0767    -1.8043     1.4195 C.2     
   7 N7            -0.0166    -2.3638     1.9106 N.2     
   8 N8            -0.2109    -3.5924     2.5027 N.2     
   9 C9            -1.4312    -4.0323     2.4929 C.2     
  10 S10           -1.9696    -5.5655     3.1742 S.3     
  11 C11            1.1454     2.1271    -0.0706 C.ar    
  12 C12            1.0456     3.5105    -0.1990 C.ar    
  13 C13            2.1933     4.2815    -0.2773 C.ar    
  14 C14            3.4399     3.6755    -0.2277 C.ar    
  15 C15            3.5381     2.2972    -0.1002 C.ar    
  16 C16            2.3935     1.5254    -0.0161 C.ar    
  17 O17            4.5669     4.4327    -0.3046 O.3     
  18 C18            4.3920     5.8449    -0.4353 C.3     
  19 O19           -0.1774     4.1033    -0.2480 O.3     
  20 C20           -0.2040     5.5259    -0.3804 C.3     
  21 Cl21           5.0997     1.5413    -0.0390 Cl      
  22 H22           -0.8435     1.6609    -0.3853 H       
  23 H23           -1.9535    -0.2226     0.4387 H       
  24 H24           -0.8341    -6.0942     3.6642 H       
  25 H25            2.1177     5.3542    -0.3773 H       
  26 H26            2.4717     0.4533     0.0876 H       
  27 H27            3.8327     6.0590    -1.3460 H       
  28 H28            3.8425     6.2243     0.4262 H       
  29 H29            5.3675     6.3287    -0.4859 H       
  30 H30           -1.2383     5.8690    -0.4071 H       
  31 H31            0.3075     5.9795     0.4685 H       
  32 H32            0.2983     5.8143    -1.3038 H       
@<TRIPOS>BOND
   1    1    2 am
   2    1   11 1
   3    1   22 1
   4    2    3 2
   5    2    4 am
   6    4    6 1
   7    4   23 1
   8    5    6 1
   9    5    9 1
  10    6    7 2
  11    7    8 1
  12    8    9 2
  13    9   10 1
  14   10   24 1
  15   11   12 ar
  16   11   16 ar
  17   12   13 ar
  18   12   19 1
  19   13   14 ar
  20   13   25 1
  21   14   15 ar
  22   14   17 1
  23   15   16 ar
  24   15   21 1
  25   16   26 1
  26   17   18 1
  27   18   27 1
  28   18   28 1
  29   18   29 1
  30   19   20 1
  31   20   30 1
  32   20   31 1
  33   20   32 1

#	End of record

