#	Name: ASD04560198
#	Creating user name:	WinNT
#	Creation time:	15. 06. 2019 20:49

#	Modifying user name:	WinNT
#	Modification time:	15. 06. 2019 20:49

#	Program:	/corina/corina34_cracker 3.40 0067  02.08.2006

@<TRIPOS>MOLECULE
ASD04560198
  34   36    0    0    0
SMALL
NO_CHARGES


@<TRIPOS>ATOM
   1 C1            -0.0374     1.5429     0.9544 C.ar    
   2 C2            -0.0295     0.1861     1.1966 C.ar    
   3 C3             1.1752    -0.5004     1.2554 C.ar    
   4 C4             2.3646     0.1594     1.0742 C.ar    
   5 C5             1.1606     2.2279     0.7683 C.ar    
   6 S6             1.4864     3.9294     0.4467 S.3     
   7 C7             2.3812     1.5480     0.8255 C.ar    
   8 N8             3.4410     2.3566     0.6256 N.2     
   9 C9             3.2142     3.6063     0.4128 C.2     
  10 N10            4.1928     4.5607     0.1898 N.am    
  11 C11            5.4927     4.2046     0.1845 C.2     
  12 N12            6.4450     5.1333    -0.0325 N.am    
  13 O13            5.8062     3.0456     0.3754 O.2     
  14 C14            7.7988     4.7833     0.0585 C.ar    
  15 C15            8.7176     5.6894     0.5707 C.ar    
  16 C16            8.2211     3.5280    -0.3581 C.ar    
  17 C17            9.5553     3.1834    -0.2677 C.ar    
  18 C18           10.4735     4.0910     0.2397 C.ar    
  19 C19           10.0515     5.3436     0.6606 C.ar    
  20 Cl20          -1.5256    -0.6635     1.4285 Cl      
  21 O21           11.7870     3.7510     0.3289 O.3     
  22 C22           12.6770     4.7343     0.8610 C.3     
  23 F23           12.2845     5.0628     2.1630 F       
  24 F24           13.9789     4.2226     0.8815 F       
  25 F25           12.6390     5.8802     0.0593 F       
  26 H26           -0.9756     2.0756     0.9044 H       
  27 H27            1.1766    -1.5635     1.4457 H       
  28 H28            3.2943    -0.3879     1.1227 H       
  29 H29            3.9427     5.4854     0.0374 H       
  30 H30            6.1932     6.0441    -0.2517 H       
  31 H31            8.3891     6.6647     0.8985 H       
  32 H32            7.5062     2.8210    -0.7525 H       
  33 H33            9.8839     2.2070    -0.5917 H       
  34 H34           10.7663     6.0486     1.0587 H       
@<TRIPOS>BOND
   1    1    2 ar
   2    1    5 ar
   3    1   26 1
   4    2    3 ar
   5    2   20 1
   6    3    4 ar
   7    3   27 1
   8    4    7 ar
   9    4   28 1
  10    5    7 ar
  11    5    6 1
  12    6    9 1
  13    7    8 1
  14    8    9 2
  15    9   10 1
  16   10   11 am
  17   10   29 1
  18   11   12 am
  19   11   13 2
  20   12   14 1
  21   12   30 1
  22   14   16 ar
  23   14   15 ar
  24   15   19 ar
  25   15   31 1
  26   16   17 ar
  27   16   32 1
  28   17   18 ar
  29   17   33 1
  30   18   19 ar
  31   18   21 1
  32   19   34 1
  33   21   22 1
  34   22   23 1
  35   22   24 1
  36   22   25 1

#	End of record

