#	Name: ASD03082237
#	Creating user name:	WinNT
#	Creation time:	15. 06. 2019 20:27

#	Modifying user name:	WinNT
#	Modification time:	15. 06. 2019 20:27

#	Program:	/corina/corina34_cracker 3.40 0067  02.08.2006

@<TRIPOS>MOLECULE
ASD03082237
  48   51    0    0    0
SMALL
NO_CHARGES


@<TRIPOS>ATOM
   1 N1             0.1709     1.4129    -0.5505 N.am    
   2 N2             0.0601     0.0215    -0.3944 N.2     
   3 C3             1.1304    -0.3785     0.2514 C.2     
   4 N4             1.9082     0.6755     0.5115 N.2     
   5 C5             1.3502     1.7691     0.0371 C.2     
   6 N6             1.4110    -1.6961     0.6099 N.pl3   
   7 C7             0.4614    -2.6989     0.3873 C.ar    
   8 C8             0.8672    -4.0173     0.2240 C.ar    
   9 C9            -0.0720    -5.0056     0.0049 C.ar    
  10 C10           -1.4176    -4.6831    -0.0527 C.ar    
  11 C11           -1.8244    -3.3697     0.1097 C.ar    
  12 C12           -0.8889    -2.3786     0.3349 C.ar    
  13 C13            0.3676    -6.4361    -0.1723 C.3     
  14 F14            1.7612    -6.5112    -0.0749 F       
  15 F15           -0.2128    -7.2291     0.8234 F       
  16 F16           -0.0374    -6.8961    -1.4299 F       
  17 C17            3.7491     4.6775     0.0664 C.ar    
  18 C18            3.2742     3.3708    -0.0232 C.ar    
  19 C19            1.9025     3.1388     0.1246 C.ar    
  20 C20            1.0672     4.2363     0.3567 C.ar    
  21 C21            1.6207     5.5034     0.4318 C.ar    
  22 N22            2.9143     5.6882     0.2886 N.ar    
  23 C23           -0.7079     2.2311    -1.1626 C.2     
  24 N24           -1.7975     1.7182    -1.7676 N.am    
  25 F25           -2.3347    -5.6514    -0.2681 F       
  26 C26           -2.7528     2.6076    -2.4330 C.3     
  27 O27           -0.5178     3.4312    -1.1689 O.2     
  28 C28           -4.1936     2.1141    -2.5795 C.3     
  29 C29           -3.2792     2.1799    -3.8044 C.3     
  30 C30            5.1933     4.9416    -0.0806 C.2     
  31 C31            5.7149     6.3523     0.0151 C.3     
  32 O32            5.9602     4.0240    -0.2783 O.2     
  33 H33            2.2646    -1.9177     1.0137 H       
  34 H34            1.9165    -4.2692     0.2682 H       
  35 H35           -2.8742    -3.1203     0.0641 H       
  36 H36           -1.2069    -1.3549     0.4659 H       
  37 H37            3.9535     2.5509    -0.2040 H       
  38 H38            0.0028     4.0972     0.4757 H       
  39 H39            0.9792     6.3536     0.6106 H       
  40 H40           -1.9493     0.7601    -1.7625 H       
  41 H41           -2.6007     3.6733    -2.2619 H       
  42 H42           -4.4308     1.1277    -2.1808 H       
  43 H43           -4.9894     2.8552    -2.5051 H       
  44 H44           -3.4734     2.9642    -4.5359 H       
  45 H45           -2.9148     1.2367    -4.2116 H       
  46 H46            4.8845     7.0353     0.1940 H       
  47 H47            6.4262     6.4216     0.8380 H       
  48 H48            6.2112     6.6202    -0.9177 H       
@<TRIPOS>BOND
   1    1    2 1
   2    1    5 1
   3    1   23 am
   4    2    3 2
   5    3    4 1
   6    3    6 1
   7    4    5 2
   8    5   19 1
   9    6    7 1
  10    6   33 1
  11    7    8 ar
  12    7   12 ar
  13    8    9 ar
  14    8   34 1
  15    9   10 ar
  16    9   13 1
  17   10   11 ar
  18   10   25 1
  19   11   12 ar
  20   11   35 1
  21   12   36 1
  22   13   14 1
  23   13   15 1
  24   13   16 1
  25   17   18 ar
  26   17   22 ar
  27   17   30 1
  28   18   19 ar
  29   18   37 1
  30   19   20 ar
  31   20   21 ar
  32   20   38 1
  33   21   22 ar
  34   21   39 1
  35   23   24 am
  36   23   27 2
  37   24   26 1
  38   24   40 1
  39   26   28 1
  40   26   29 1
  41   26   41 1
  42   28   29 1
  43   28   42 1
  44   28   43 1
  45   29   44 1
  46   29   45 1
  47   30   31 1
  48   30   32 2
  49   31   46 1
  50   31   47 1
  51   31   48 1

#	End of record

