#	Name: ASD00061055
#	Creating user name:	WinNT
#	Creation time:	15. 06. 2019 18:29

#	Modifying user name:	WinNT
#	Modification time:	15. 06. 2019 18:29

#	Program:	/corina/corina34_cracker 3.40 0067  02.08.2006

@<TRIPOS>MOLECULE
ASD00061055
  42   44    0    0    0
SMALL
NO_CHARGES


@<TRIPOS>ATOM
   1 C1            -0.0184     1.5028     0.0103 C.ar    
   2 C2             0.0021    -0.0041     0.0020 C.3     
   3 C3            -0.7002    -0.5305     1.2552 C.3     
   4 C4            -0.5729    -2.0312     1.3094 C.2     
   5 O5             0.0210    -2.6214     0.4322 O.2     
   6 C6            -1.1690    -2.7799     2.4262 C.ar    
   7 C7            -1.8580    -2.0894     3.4429 C.ar    
   8 C8            -2.4157    -2.7587     4.4824 C.ar    
   9 C9            -2.3105    -4.1605     4.5566 C.ar    
  10 C10           -1.6197    -4.8684     3.5401 C.ar    
  11 C11           -1.0538    -4.1626     2.4686 C.ar    
  12 C12           -0.7241    -0.5171    -1.2431 C.3     
  13 C13            1.1693     2.2102     0.0028 C.ar    
  14 C14            1.1505     3.5924     0.0104 C.ar    
  15 C15           -0.0559     4.2672     0.0251 C.ar    
  16 C16           -1.2435     3.5598     0.0318 C.ar    
  17 C17           -1.2248     2.1776     0.0197 C.ar    
  18 C18           -1.5186    -6.2693     3.6217 C.ar    
  19 C19           -2.0832    -6.9251     4.6720 C.ar    
  20 C20           -2.7618    -6.2291     5.6705 C.ar    
  21 C21           -2.8797    -4.8733     5.6245 C.ar    
  22 C22            0.0370    -0.1013    -2.4756 C.2     
  23 O23            1.0557     0.5396    -2.3690 O.2     
  24 O24           -0.4168    -0.4430    -3.6917 O.3     
  25 H25            1.0345    -0.3534    -0.0097 H       
  26 H26           -0.2382    -0.0945     2.1409 H       
  27 H27           -1.7547    -0.2563     1.2231 H       
  28 H28           -1.9428    -1.0138     3.3941 H       
  29 H29           -2.9408    -2.2156     5.2542 H       
  30 H30           -0.5292    -4.6898     1.6855 H       
  31 H31           -0.7871    -1.6046    -1.2047 H       
  32 H32           -1.7288    -0.0959    -1.2772 H       
  33 H33            2.1118     1.6830    -0.0087 H       
  34 H34            2.0784     4.1450     0.0052 H       
  35 H35           -0.0705     5.3471     0.0318 H       
  36 H36           -2.1860     4.0870     0.0436 H       
  37 H37           -2.1526     1.6249     0.0249 H       
  38 H38           -0.9958    -6.8213     2.8547 H       
  39 H39           -2.0045    -8.0006     4.7324 H       
  40 H40           -3.2010    -6.7733     6.4935 H       
  41 H41           -3.4081    -4.3482     6.4064 H       
  42 H42            0.1054    -0.1536    -4.4524 H       
@<TRIPOS>BOND
   1    1    2 1
   2    1   13 ar
   3    1   17 ar
   4    2    3 1
   5    2   12 1
   6    2   25 1
   7    3    4 1
   8    3   26 1
   9    3   27 1
  10    4    5 2
  11    4    6 1
  12    6    7 ar
  13    6   11 ar
  14    7    8 ar
  15    7   28 1
  16    8    9 ar
  17    8   29 1
  18    9   10 ar
  19    9   21 ar
  20   10   11 ar
  21   10   18 ar
  22   11   30 1
  23   12   22 1
  24   12   31 1
  25   12   32 1
  26   13   14 ar
  27   13   33 1
  28   14   15 ar
  29   14   34 1
  30   15   16 ar
  31   15   35 1
  32   16   17 ar
  33   16   36 1
  34   17   37 1
  35   18   19 ar
  36   18   38 1
  37   19   20 ar
  38   19   39 1
  39   20   21 ar
  40   20   40 1
  41   21   41 1
  42   22   23 2
  43   22   24 1
  44   24   42 1

#	End of record

