#	Name: ASD03330554
#	Creating user name:	WinNT
#	Creation time:	15. 06. 2019 20:37

#	Modifying user name:	WinNT
#	Modification time:	15. 06. 2019 20:37

#	Program:	/corina/corina34_cracker 3.40 0067  02.08.2006

@<TRIPOS>MOLECULE
ASD03330554
  61   63    0    0    0
SMALL
NO_CHARGES


@<TRIPOS>ATOM
   1 C1            -0.3237     1.1652     0.8313 C.2     
   2 N2            -0.3563    -0.1675     1.0627 N.pl3   
   3 C3             0.9829     1.5507     0.8823 C.2     
   4 N4             1.7271     0.4512     1.1254 N.2     
   5 C5             0.9314    -0.5877     1.2297 C.2     
   6 C6             1.3587    -1.9798     1.4852 C.ar    
   7 C7             1.4917     2.9223     0.7036 C.2     
   8 O8             0.7173     3.8349     0.4878 O.2     
   9 C9             3.3211     4.5286     0.6017 C.3     
  10 N10            2.8153     3.1653     0.7793 N.am    
  11 C11            3.5027     4.8149    -0.8903 C.3     
  12 C12            2.1380     4.8015    -1.5820 C.3     
  13 C13            4.1525     6.1882    -1.0708 C.3     
  14 C14            4.3992     3.7411    -1.5102 C.3     
  15 C15            4.6466     4.6683     1.3049 C.2     
  16 N16            5.1841     5.8898     1.4934 N.am    
  17 O17            5.2297     3.6815     1.7013 O.2     
  18 C18            6.5055     6.0211     2.1121 C.3     
  19 C19           -1.5678    -0.9892     1.1319 C.3     
  20 C20           -2.4697    -0.6572    -0.0609 C.3     
  21 C21           -3.3815     0.5135     0.2929 C.3     
  22 N22           -2.7055     1.4531     1.1901 N.3     
  23 C23           -1.5181     2.0402     0.5519 C.3     
  24 C24           -3.6286     2.4999     1.6485 C.3     
  25 C25            2.6144    -2.4147     1.0550 C.ar    
  26 C26            3.0128    -3.7103     1.2930 C.ar    
  27 C27            2.1607    -4.5910     1.9653 C.ar    
  28 C28            0.9042    -4.1552     2.3955 C.ar    
  29 C29            0.5089    -2.8579     2.1616 C.ar    
  30 C30            2.5746    -5.9394     2.2127 C.1     
  31 N31            2.9029    -7.0090     2.4091 N.1     
  32 H32            2.6093     5.2381     1.0237 H       
  33 H33            3.4329     2.4374     0.9514 H       
  34 H34            1.4993     5.5665    -1.1404 H       
  35 H35            2.2674     5.0054    -2.6449 H       
  36 H36            1.6751     3.8231    -1.4534 H       
  37 H37            5.1107     6.2078    -0.5517 H       
  38 H38            4.3103     6.3789    -2.1323 H       
  39 H39            3.4993     6.9564    -0.6568 H       
  40 H40            3.9362     2.7627    -1.3817 H       
  41 H41            4.5285     3.9450    -2.5731 H       
  42 H42            5.3714     3.7506    -1.0174 H       
  43 H43            4.6960     6.6820     1.2193 H       
  44 H44            6.7712     7.0760     2.1809 H       
  45 H45            6.4836     5.5860     3.1113 H       
  46 H46            7.2447     5.4990     1.5046 H       
  47 H47           -1.2949    -2.0440     1.0997 H       
  48 H48           -2.0988    -0.7776     2.0600 H       
  49 H49           -1.8526    -0.3897    -0.9186 H       
  50 H50           -3.0770    -1.5275    -0.3095 H       
  51 H51           -3.6669     1.0339    -0.6213 H       
  52 H52           -4.2783     0.1335     0.7823 H       
  53 H53           -1.3423     3.0369     0.9567 H       
  54 H54           -1.6779     2.1059    -0.5243 H       
  55 H55           -4.4601     2.0419     2.1842 H       
  56 H56           -3.1009     3.1839     2.3132 H       
  57 H57           -4.0096     3.0505     0.7885 H       
  58 H58            3.2726    -1.7343     0.5353 H       
  59 H59            3.9836    -4.0466     0.9601 H       
  60 H60            0.2454    -4.8353     2.9149 H       
  61 H61           -0.4617    -2.5210     2.4943 H       
@<TRIPOS>BOND
   1    1    2 1
   2    1    3 2
   3    1   23 1
   4    2   19 1
   5    2    5 1
   6    3    4 1
   7    3    7 1
   8    4    5 2
   9    5    6 1
  10    6   25 ar
  11    6   29 ar
  12    7    8 2
  13    7   10 am
  14    9   10 1
  15    9   11 1
  16    9   15 1
  17    9   32 1
  18   10   33 1
  19   11   12 1
  20   11   13 1
  21   11   14 1
  22   12   34 1
  23   12   35 1
  24   12   36 1
  25   13   37 1
  26   13   38 1
  27   13   39 1
  28   14   40 1
  29   14   41 1
  30   14   42 1
  31   15   16 am
  32   15   17 2
  33   16   18 1
  34   16   43 1
  35   18   44 1
  36   18   45 1
  37   18   46 1
  38   19   20 1
  39   19   47 1
  40   19   48 1
  41   20   21 1
  42   20   49 1
  43   20   50 1
  44   21   22 1
  45   21   51 1
  46   21   52 1
  47   22   23 1
  48   22   24 1
  49   23   53 1
  50   23   54 1
  51   24   55 1
  52   24   56 1
  53   24   57 1
  54   25   26 ar
  55   25   58 1
  56   26   27 ar
  57   26   59 1
  58   27   28 ar
  59   27   30 1
  60   28   29 ar
  61   28   60 1
  62   29   61 1
  63   30   31 3

#	End of record

