#	Name: ASD03430434
#	Creating user name:	WinNT
#	Creation time:	15. 06. 2019 20:41

#	Modifying user name:	WinNT
#	Modification time:	15. 06. 2019 20:41

#	Program:	/corina/corina34_cracker 3.40 0067  02.08.2006

@<TRIPOS>MOLECULE
ASD03430434
  57   62    0    0    0
SMALL
NO_CHARGES


@<TRIPOS>ATOM
   1 O1             0.0028    -1.7978     0.0531 O.3     
   2 C2             0.5210    -3.0327     0.1424 C.2     
   3 N3             1.8666    -2.9569     0.1349 N.am    
   4 C4             2.2097    -1.6067     0.0360 C.ar    
   5 C5             1.0114    -0.8944    -0.0142 C.ar    
   6 C6             3.4206    -0.9351    -0.0143 C.ar    
   7 C7             3.4402     0.4425    -0.1143 C.ar    
   8 C8             2.2495     1.1544    -0.1645 C.ar    
   9 C9             1.0358     0.4873    -0.1145 C.ar    
  10 O10           -0.1239    -4.0609     0.2186 O.2     
  11 C11            2.7986    -4.0843     0.2162 C.3     
  12 O12            2.2741     2.5104    -0.2625 O.3     
  13 N13            6.7127     0.2805     0.6500 N.am    
  14 C14            5.5812     0.8744     1.0652 C.2     
  15 C15            4.7566     1.1740    -0.1686 C.3     
  16 C16            5.6024     0.6581    -1.3099 C.ar    
  17 C17            5.4184     0.6313    -2.6741 C.ar    
  18 C18            6.3910     0.0818    -3.4910 C.ar    
  19 C19            7.5446    -0.4386    -2.9330 C.ar    
  20 C20            7.7314    -0.4130    -1.5666 C.ar    
  21 C21            6.7565     0.1387    -0.7374 C.ar    
  22 O22            5.2773     1.1233     2.2128 O.2     
  23 C23            7.7807    -0.1616     1.5501 C.3     
  24 C24            9.1009     0.3829     1.0688 C.ar    
  25 C25           10.2281    -0.4170     1.0917 C.ar    
  26 C26           11.4391     0.0825     0.6502 C.ar    
  27 C27           11.5228     1.3817     0.1855 C.ar    
  28 C28           10.3954     2.1813     0.1619 C.ar    
  29 C29            9.1835     1.6804     0.5992 C.ar    
  30 C30            7.5059     0.3450     2.9426 C.ar    
  31 C31            7.3057    -0.5500     3.9768 C.ar    
  32 C32            7.0536    -0.0853     5.2540 C.ar    
  33 C33            7.0022     1.2746     5.4971 C.ar    
  34 C34            7.2033     2.1696     4.4631 C.ar    
  35 C35            7.4597     1.7049     3.1867 C.ar    
  36 H36            4.3477    -1.4878     0.0250 H       
  37 H37            0.1108     1.0433    -0.1539 H       
  38 H38            2.2369    -5.0159     0.2848 H       
  39 H39            3.4252    -4.1027    -0.6755 H       
  40 H40            3.4272    -3.9731     1.0997 H       
  41 H41            2.2803     2.8389    -1.1720 H       
  42 H42            4.5924     2.2471    -0.2669 H       
  43 H43            4.5162     1.0383    -3.1061 H       
  44 H44            6.2494     0.0590    -4.5615 H       
  45 H45            8.3032    -0.8677    -3.5707 H       
  46 H46            8.6349    -0.8213    -1.1384 H       
  47 H47            7.8191    -1.2509     1.5608 H       
  48 H48           10.1626    -1.4320     1.4547 H       
  49 H49           12.3199    -0.5422     0.6687 H       
  50 H50           12.4691     1.7721    -0.1587 H       
  51 H51           10.4609     3.1964    -0.2009 H       
  52 H52            8.3019     2.3039     0.5773 H       
  53 H53            7.3459    -1.6124     3.7869 H       
  54 H54            6.8965    -0.7846     6.0619 H       
  55 H55            6.8046     1.6377     6.4949 H       
  56 H56            7.1628     3.2321     4.6529 H       
  57 H57            7.6205     2.4042     2.3795 H       
@<TRIPOS>BOND
   1    1    2 1
   2    1    5 1
   3    2    3 am
   4    2   10 2
   5    3    4 1
   6    3   11 1
   7    4    5 ar
   8    4    6 ar
   9    5    9 ar
  10    6    7 ar
  11    6   36 1
  12    7    8 ar
  13    7   15 1
  14    8    9 ar
  15    8   12 1
  16    9   37 1
  17   11   38 1
  18   11   39 1
  19   11   40 1
  20   12   41 1
  21   13   14 am
  22   13   21 1
  23   13   23 1
  24   14   15 1
  25   14   22 2
  26   15   16 1
  27   15   42 1
  28   16   17 ar
  29   16   21 ar
  30   17   18 ar
  31   17   43 1
  32   18   19 ar
  33   18   44 1
  34   19   20 ar
  35   19   45 1
  36   20   21 ar
  37   20   46 1
  38   23   24 1
  39   23   30 1
  40   23   47 1
  41   24   25 ar
  42   24   29 ar
  43   25   26 ar
  44   25   48 1
  45   26   27 ar
  46   26   49 1
  47   27   28 ar
  48   27   50 1
  49   28   29 ar
  50   28   51 1
  51   29   52 1
  52   30   31 ar
  53   30   35 ar
  54   31   32 ar
  55   31   53 1
  56   32   33 ar
  57   32   54 1
  58   33   34 ar
  59   33   55 1
  60   34   35 ar
  61   34   56 1
  62   35   57 1

#	End of record

