#	Name: ASD09740278
#	Creating user name:	WinNT
#	Creation time:	15. 06. 2019 21:23

#	Modifying user name:	WinNT
#	Modification time:	15. 06. 2019 21:23

#	Program:	/corina/corina34_cracker 3.40 0067  02.08.2006

@<TRIPOS>MOLECULE
ASD09740278
  41   44    0    0    0
SMALL
NO_CHARGES


@<TRIPOS>ATOM
   1 N1            -0.5315     0.6503     2.4783 N.2     
   2 O2            -0.4145    -0.4650     2.0166 O.3     
   3 C3             0.5614     1.3416     2.2793 C.2     
   4 N4             1.4289     0.5434     1.6226 N.2     
   5 C5             0.7986    -0.6045     1.4600 C.2     
   6 C6             1.3278    -1.8130     0.7927 C.ar    
   7 C7             0.8022     2.7453     2.6980 C.ar    
   8 C8             0.5406    -2.9602     0.6955 C.ar    
   9 C9             1.0429    -4.0885     0.0685 C.ar    
  10 C10            2.3264    -4.0760    -0.4606 C.ar    
  11 C11            3.1079    -2.9392    -0.3650 C.ar    
  12 C12            2.6151    -1.8080     0.2525 C.ar    
  13 C13           -0.1896     3.4534     3.3727 C.ar    
  14 C14            0.0396     4.7585     3.7597 C.ar    
  15 C15            1.2513     5.3631     3.4786 C.ar    
  16 C16            2.2395     4.6646     2.8084 C.ar    
  17 C17            2.0232     3.3574     2.4224 C.ar    
  18 C18           -1.5106     2.7960     3.6792 C.3     
  19 O19            0.2793    -5.2085    -0.0283 O.3     
  20 C20           -0.5354    -5.3336    -1.1087 C.ar    
  21 C21           -0.4919    -4.3900    -2.1250 C.ar    
  22 C22           -1.4082    -6.4084    -1.2002 C.ar    
  23 C23           -2.2353    -6.5333    -2.2995 C.ar    
  24 C24           -2.1937    -5.5887    -3.3083 C.ar    
  25 C25           -1.3211    -4.5196    -3.2221 C.ar    
  26 H26           -0.4574    -2.9688     1.1082 H       
  27 H27            2.7160    -4.9573    -0.9484 H       
  28 H28            4.1057    -2.9355    -0.7782 H       
  29 H29            3.2281    -0.9218     0.3255 H       
  30 H30           -0.7288     5.3085     4.2826 H       
  31 H31            1.4265     6.3843     3.7832 H       
  32 H32            3.1837     5.1416     2.5907 H       
  33 H33            2.7955     2.8128     1.8995 H       
  34 H34           -1.4554     2.3054     4.6510 H       
  35 H35           -2.2965     3.5511     3.6976 H       
  36 H36           -1.7353     2.0563     2.9109 H       
  37 H37            0.1895    -3.5547    -2.0582 H       
  38 H38           -1.4406    -7.1469    -0.4127 H       
  39 H39           -2.9148    -7.3697    -2.3711 H       
  40 H40           -2.8409    -5.6884    -4.1671 H       
  41 H41           -1.2909    -3.7829    -4.0113 H       
@<TRIPOS>BOND
   1    1    2 1
   2    1    3 2
   3    2    5 1
   4    3    4 1
   5    3    7 1
   6    4    5 2
   7    5    6 1
   8    6    8 ar
   9    6   12 ar
  10    7   13 ar
  11    7   17 ar
  12    8    9 ar
  13    8   26 1
  14    9   10 ar
  15    9   19 1
  16   10   11 ar
  17   10   27 1
  18   11   12 ar
  19   11   28 1
  20   12   29 1
  21   13   14 ar
  22   13   18 1
  23   14   15 ar
  24   14   30 1
  25   15   16 ar
  26   15   31 1
  27   16   17 ar
  28   16   32 1
  29   17   33 1
  30   18   34 1
  31   18   35 1
  32   18   36 1
  33   19   20 1
  34   20   21 ar
  35   20   22 ar
  36   21   25 ar
  37   21   37 1
  38   22   23 ar
  39   22   38 1
  40   23   24 ar
  41   23   39 1
  42   24   25 ar
  43   24   40 1
  44   25   41 1

#	End of record

