#	Name: ASD01840400
#	Creating user name:	WinNT
#	Creation time:	15. 06. 2019 19:37

#	Modifying user name:	WinNT
#	Modification time:	15. 06. 2019 19:37

#	Program:	/corina/corina34_cracker 3.40 0067  02.08.2006

@<TRIPOS>MOLECULE
ASD01840400
  49   51    0    0    0
SMALL
NO_CHARGES


@<TRIPOS>ATOM
   1 C1             0.2611     1.7552    -0.9980 C.ar    
   2 C2             0.3841     0.5320    -1.6195 C.ar    
   3 N3             1.4990    -0.1677    -1.4965 N.ar    
   4 N4             2.4999     0.2427    -0.8111 N.ar    
   5 C5             1.3546     2.2267    -0.2364 C.ar    
   6 C6             1.5104     3.4570     0.5171 C.2     
   7 C7             2.4928     1.4121    -0.1670 C.ar    
   8 S8             3.7250     2.1824     0.8223 S.3     
   9 C9             2.7118     3.5783     1.1344 C.2     
  10 C10           -0.9999     2.5697    -1.1313 C.3     
  11 C11           -0.7562    -0.0106    -2.4419 C.3     
  12 N12            0.5179     4.4243     0.5985 N.pl3   
  13 C13            3.1102     4.7236     1.9514 C.2     
  14 O14            2.3404     5.6527     2.1138 O.2     
  15 N15            4.3297     4.7507     2.5248 N.am    
  16 C16            5.3533     3.7015     2.4115 C.3     
  17 C17            6.5673     4.1532     3.2503 C.3     
  18 C18            5.9437     5.1661     4.2466 C.3     
  19 C19            4.8604     5.8402     3.3642 C.3     
  20 N20            5.3414     4.4755     5.3896 N.am    
  21 C21            5.2050     5.1152     6.5679 C.2     
  22 O22            4.6515     4.4805     7.6184 O.3     
  23 C23            4.5363     5.2309     8.8561 C.3     
  24 C24            3.8886     4.3514     9.9274 C.3     
  25 C25            3.7673     5.1422    11.2316 C.3     
  26 O26            5.5816     6.2648     6.6823 O.2     
  27 H27           -1.6441     2.3852    -0.2716 H       
  28 H28           -0.7456     3.6287    -1.1742 H       
  29 H29           -1.5220     2.2841    -2.0445 H       
  30 H30           -0.6493     0.3210    -3.4747 H       
  31 H31           -0.7433    -1.1000    -2.4068 H       
  32 H32           -1.7008     0.3547    -2.0389 H       
  33 H33           -0.4028     4.1923     0.4002 H       
  34 H34            0.7452     5.3322     0.8537 H       
  35 H35            4.9640     2.7603     2.7997 H       
  36 H36            5.6473     3.5814     1.3687 H       
  37 H37            7.0044     3.3083     3.7824 H       
  38 H38            7.3116     4.6404     2.6203 H       
  39 H39            6.6839     5.8944     4.5779 H       
  40 H40            5.3043     6.6170     2.7416 H       
  41 H41            4.0700     6.2581     3.9877 H       
  42 H42            5.0408     3.5578     5.2983 H       
  43 H43            5.5280     5.5377     9.1886 H       
  44 H44            3.9197     6.1142     8.6894 H       
  45 H45            2.8969     4.0447     9.5949 H       
  46 H46            4.5052     3.4682    10.0941 H       
  47 H47            3.3058     4.5156    11.9948 H       
  48 H48            4.7590     5.4489    11.5641 H       
  49 H49            3.1506     6.0254    11.0650 H       
@<TRIPOS>BOND
   1    1    2 ar
   2    1    5 ar
   3    1   10 1
   4    2   11 1
   5    2    3 ar
   6    3    4 ar
   7    4    7 ar
   8    5    7 ar
   9    5    6 1
  10    6    9 2
  11    6   12 1
  12    7    8 1
  13    8    9 1
  14    9   13 1
  15   10   27 1
  16   10   28 1
  17   10   29 1
  18   11   30 1
  19   11   31 1
  20   11   32 1
  21   12   33 1
  22   12   34 1
  23   13   14 2
  24   13   15 am
  25   15   16 1
  26   15   19 1
  27   16   17 1
  28   16   35 1
  29   16   36 1
  30   17   18 1
  31   17   37 1
  32   17   38 1
  33   18   19 1
  34   18   20 1
  35   18   39 1
  36   19   40 1
  37   19   41 1
  38   20   21 am
  39   20   42 1
  40   21   22 1
  41   21   26 2
  42   22   23 1
  43   23   24 1
  44   23   43 1
  45   23   44 1
  46   24   25 1
  47   24   45 1
  48   24   46 1
  49   25   47 1
  50   25   48 1
  51   25   49 1

#	End of record

