#	Name: ASD00111115
#	Creating user name:	WinNT
#	Creation time:	15. 06. 2019 18:30

#	Modifying user name:	WinNT
#	Modification time:	15. 06. 2019 18:30

#	Program:	/corina/corina34_cracker 3.40 0067  02.08.2006

@<TRIPOS>MOLECULE
ASD00111115
  25   25    0    0    0
SMALL
NO_CHARGES


@<TRIPOS>ATOM
   1 N1            -0.0178     1.4608     0.0101 N.am    
   2 C2             0.0021    -0.0041     0.0020 C.3     
   3 C3            -1.4333    -0.5336     0.0129 C.3     
   4 C4            -1.4129    -2.0405     0.0046 C.ar    
   5 C5            -1.2877    -2.7368     1.1932 C.ar    
   6 C6            -1.2689    -4.1192     1.1858 C.ar    
   7 C7            -1.3758    -4.8057    -0.0107 C.ar    
   8 C8            -1.5014    -4.1085    -1.1989 C.ar    
   9 C9            -1.5249    -2.7263    -1.1901 C.ar    
  10 Cl10          -1.3518    -6.5415    -0.0208 Cl      
  11 I11           -1.1259    -1.6966     3.0045 I       
  12 C12            1.1401     2.1505     0.0027 C.2     
  13 O13            2.1985     1.5584    -0.0106 O.2     
  14 C14            1.1197     3.6573     0.0110 C.3     
  15 F15            2.4322     4.1416     0.0011 F       
  16 F16            0.4430     4.1208    -1.1224 F       
  17 F17            0.4648     4.1085     1.1620 F       
  18 H18           -0.8643     1.9343     0.0167 H       
  19 H19            0.5123    -0.3556    -0.8948 H       
  20 H20            0.5293    -0.3651     0.8851 H       
  21 H21           -1.9435    -0.1821     0.9097 H       
  22 H22           -1.9605    -0.1726    -0.8702 H       
  23 H23           -1.1705    -4.6630     2.1137 H       
  24 H24           -1.5845    -4.6441    -2.1330 H       
  25 H25           -1.6271    -2.1822    -2.1174 H       
@<TRIPOS>BOND
   1    1    2 1
   2    1   12 am
   3    1   18 1
   4    2    3 1
   5    2   19 1
   6    2   20 1
   7    3    4 1
   8    3   21 1
   9    3   22 1
  10    4    5 ar
  11    4    9 ar
  12    5    6 ar
  13    5   11 1
  14    6    7 ar
  15    6   23 1
  16    7    8 ar
  17    7   10 1
  18    8    9 ar
  19    8   24 1
  20    9   25 1
  21   12   13 2
  22   12   14 1
  23   14   15 1
  24   14   16 1
  25   14   17 1

#	End of record

