#	Name: ASD03080052
#	Creating user name:	WinNT
#	Creation time:	15. 06. 2019 20:26

#	Modifying user name:	WinNT
#	Modification time:	15. 06. 2019 20:26

#	Program:	/corina/corina34_cracker 3.40 0067  02.08.2006

@<TRIPOS>MOLECULE
ASD03080052
  27   29    0    0    0
SMALL
NO_CHARGES


@<TRIPOS>ATOM
   1 C1             0.0021    -0.0041     0.0020 C.1     
   2 C2            -0.0173     1.4278     0.0099 C.ar    
   3 C3             1.1844     2.1465     0.0023 C.ar    
   4 C4             1.1650     3.5302     0.0099 C.ar    
   5 C5            -0.0359     4.2089     0.0250 C.ar    
   6 C6            -1.2420     3.5033     0.0322 C.ar    
   7 C7            -1.2323     2.1102     0.0193 C.ar    
   8 N8             0.0175    -1.1399    -0.0042 N.1     
   9 O9            -3.7545     3.6924     0.0573 O.3     
  10 N10           -4.5925     4.5689     0.0700 N.2     
  11 C11           -4.0201     5.7454     0.0708 C.2     
  12 N12           -2.6858     5.5443     0.0569 N.2     
  13 C13           -2.5265     4.2340     0.0484 C.2     
  14 C14           -3.9784     8.2442     0.0828 C.ar    
  15 C15           -4.7110     7.0592     0.0840 C.ar    
  16 C16           -6.1064     7.1273     0.0973 C.ar    
  17 C17           -6.7028     8.3768     0.1088 C.ar    
  18 C18           -5.9058     9.5066     0.1068 C.ar    
  19 N19           -4.5902     9.4106     0.0941 N.ar    
  20 F20            2.3642     1.4883    -0.0121 F       
  21 H21            2.0939     4.0811     0.0043 H       
  22 H22           -0.0440     5.2888     0.0315 H       
  23 H23           -2.1625     1.5614     0.0211 H       
  24 H24           -2.8991     8.2060     0.0771 H       
  25 H25           -6.7046     6.2281     0.0982 H       
  26 H26           -7.7789     8.4679     0.1189 H       
  27 H27           -6.3675    10.4829     0.1157 H       
@<TRIPOS>BOND
   1    1    2 1
   2    1    8 3
   3    2    3 ar
   4    2    7 ar
   5    3    4 ar
   6    3   20 1
   7    4    5 ar
   8    4   21 1
   9    5    6 ar
  10    5   22 1
  11    6    7 ar
  12    6   13 1
  13    7   23 1
  14    9   10 1
  15    9   13 1
  16   10   11 2
  17   11   12 1
  18   11   15 1
  19   12   13 2
  20   14   15 ar
  21   14   19 ar
  22   14   24 1
  23   15   16 ar
  24   16   17 ar
  25   16   25 1
  26   17   18 ar
  27   17   26 1
  28   18   19 ar
  29   18   27 1

#	End of record

