#	Name: ASD03092718
#	Creating user name:	WinNT
#	Creation time:	15. 06. 2019 20:33

#	Modifying user name:	WinNT
#	Modification time:	15. 06. 2019 20:33

#	Program:	/corina/corina34_cracker 3.40 0067  02.08.2006

@<TRIPOS>MOLECULE
ASD03092718
  55   58    0    0    0
SMALL
NO_CHARGES


@<TRIPOS>ATOM
   1 C1             0.0247     1.1858     0.0030 C.2     
   2 O2            -0.6774     1.1949     0.9959 O.2     
   3 C3             2.5226     1.2867     0.1078 C.ar    
   4 C4             1.2859     1.9474    -0.0146 C.ar    
   5 C5             1.2744     3.3389    -0.1535 C.ar    
   6 C6             2.4959     4.0113    -0.1645 C.ar    
   7 C7             3.6777     3.2812    -0.0378 C.ar    
   8 N8             3.6565     1.9705     0.0921 N.ar    
   9 C9             2.5383     5.4874    -0.3099 C.ar    
  10 C10            3.7626     6.1531    -0.3201 C.ar    
  11 C11            3.7988     7.5252    -0.4554 C.ar    
  12 C12            2.6173     8.2431    -0.5813 C.ar    
  13 C13            1.3962     7.5827    -0.5711 C.ar    
  14 C14            1.3540     6.2102    -0.4423 C.ar    
  15 O15            2.6560     9.5949    -0.7144 O.3     
  16 C16            1.4031    10.2706    -0.8394 C.3     
  17 C17            1.6466    11.7747    -0.9784 C.3     
  18 N18            2.5535    -0.0873     0.2517 N.pl3   
  19 C19            3.8369    -0.7936     0.2656 C.3     
  20 C20            3.5951    -2.2716     0.4335 C.ar    
  21 C21            3.2231    -3.0405    -0.6564 C.ar    
  22 C22            3.0009    -4.3981    -0.5022 C.ar    
  23 C23            3.1509    -4.9862     0.7395 C.ar    
  24 C24            3.5233    -4.2176     1.8289 C.ar    
  25 C25            3.7502    -2.8604     1.6737 C.ar    
  26 F26            3.6699    -4.7925     3.0427 F       
  27 F27            3.0765    -2.4656    -1.8702 F       
  28 C28           -0.3840     0.4061    -1.1836 C.ar    
  29 C29           -1.5157    -0.4111    -1.1301 C.ar    
  30 C30           -1.8922    -1.1358    -2.2408 C.ar    
  31 C31           -1.1505    -1.0551    -3.4082 C.ar    
  32 C32           -0.0270    -0.2468    -3.4674 C.ar    
  33 C33            0.3563     0.4876    -2.3654 C.ar    
  34 Cl34          -1.6308    -1.9712    -4.8024 Cl      
  35 H35            0.3439     3.8785    -0.2502 H       
  36 H36            4.6254     3.7989    -0.0459 H       
  37 H37            4.6821     5.5952    -0.2218 H       
  38 H38            4.7472     8.0417    -0.4630 H       
  39 H39            0.4787     8.1439    -0.6689 H       
  40 H40            0.4040     5.6965    -0.4393 H       
  41 H41            0.8792     9.9043    -1.7223 H       
  42 H42            0.7979    10.0809     0.0470 H       
  43 H43            0.6909    12.2902    -1.0737 H       
  44 H44            2.1705    12.1411    -0.0955 H       
  45 H45            2.2518    11.9645    -1.8648 H       
  46 H46            1.7255    -0.5841     0.3436 H       
  47 H47            4.3599    -0.6154    -0.6740 H       
  48 H48            4.4438    -0.4283     1.0941 H       
  49 H49            2.7100    -4.9976    -1.3521 H       
  50 H50            2.9772    -6.0453     0.8599 H       
  51 H51            4.0446    -2.2615     2.5228 H       
  52 H52           -2.0942    -0.4753    -0.2204 H       
  53 H53           -2.7669    -1.7680    -2.2007 H       
  54 H54            0.5473    -0.1884    -4.3802 H       
  55 H55            1.2296     1.1211    -2.4142 H       
@<TRIPOS>BOND
   1    1    2 2
   2    1    4 1
   3    1   28 1
   4    3    4 ar
   5    3    8 ar
   6    3   18 1
   7    4    5 ar
   8    5    6 ar
   9    5   35 1
  10    6    7 ar
  11    6    9 1
  12    7    8 ar
  13    7   36 1
  14    9   10 ar
  15    9   14 ar
  16   10   11 ar
  17   10   37 1
  18   11   12 ar
  19   11   38 1
  20   12   13 ar
  21   12   15 1
  22   13   14 ar
  23   13   39 1
  24   14   40 1
  25   15   16 1
  26   16   17 1
  27   16   41 1
  28   16   42 1
  29   17   43 1
  30   17   44 1
  31   17   45 1
  32   18   19 1
  33   18   46 1
  34   19   20 1
  35   19   47 1
  36   19   48 1
  37   20   21 ar
  38   20   25 ar
  39   21   22 ar
  40   21   27 1
  41   22   23 ar
  42   22   49 1
  43   23   24 ar
  44   23   50 1
  45   24   25 ar
  46   24   26 1
  47   25   51 1
  48   28   29 ar
  49   28   33 ar
  50   29   30 ar
  51   29   52 1
  52   30   31 ar
  53   30   53 1
  54   31   32 ar
  55   31   34 1
  56   32   33 ar
  57   32   54 1
  58   33   55 1

#	End of record

