#	Name: ASD03080053
#	Creating user name:	WinNT
#	Creation time:	15. 06. 2019 20:26

#	Modifying user name:	WinNT
#	Modification time:	15. 06. 2019 20:26

#	Program:	/corina/corina34_cracker 3.40 0067  02.08.2006

@<TRIPOS>MOLECULE
ASD03080053
  31   34    0    0    0
SMALL
NO_CHARGES


@<TRIPOS>ATOM
   1 O1            -0.0144     1.2085     0.0087 O.3     
   2 N2             0.0021    -0.0041     0.0020 N.2     
   3 C3             1.2349    -0.4420    -0.0121 C.2     
   4 N4             2.0455     0.6368    -0.0141 N.2     
   5 C5             1.2410     1.6828    -0.0008 C.2     
   6 C6             2.9952     3.4588    -0.0089 C.ar    
   7 C7             1.6453     3.1048     0.0026 C.ar    
   8 C8             0.6806     4.1189     0.0168 C.ar    
   9 C9             1.1115     5.4341     0.0189 C.ar    
  10 C10            2.4683     5.7020     0.0070 C.ar    
  11 N11            3.3554     4.7253    -0.0059 N.ar    
  12 C12            1.6629    -1.8635    -0.0234 C.ar    
  13 C13            0.7109    -2.8777    -0.0198 C.ar    
  14 C14            1.1197    -4.2090    -0.0304 C.ar    
  15 C15            2.4807    -4.5175    -0.0445 C.ar    
  16 C16            3.4200    -3.5059    -0.0480 C.ar    
  17 C17            3.0193    -2.1838    -0.0434 C.ar    
  18 N18            0.3640    -6.6268    -0.0353 N.pl3   
  19 N19           -0.9008    -7.2404    -0.0267 N.2     
  20 N20           -1.7755    -6.2937    -0.0138 N.2     
  21 N21           -1.1951    -5.1482    -0.0133 N.2     
  22 C22            0.1130    -5.2943    -0.0262 C.2     
  23 H23            3.7509     2.6873    -0.0154 H       
  24 H24           -0.3729     3.8811     0.0256 H       
  25 H25            0.3957     6.2428     0.0294 H       
  26 H26            2.8073     6.7274     0.0086 H       
  27 H27           -0.3411    -2.6337    -0.0085 H       
  28 H28            2.7996    -5.5494    -0.0524 H       
  29 H29            4.4722    -3.7490    -0.0590 H       
  30 H30            3.7587    -1.3967    -0.0506 H       
  31 H31            1.2304    -7.0630    -0.0420 H       
@<TRIPOS>BOND
   1    1    2 1
   2    1    5 1
   3    2    3 2
   4    3    4 1
   5    3   12 1
   6    4    5 2
   7    5    7 1
   8    6    7 ar
   9    6   11 ar
  10    6   23 1
  11    7    8 ar
  12    8    9 ar
  13    8   24 1
  14    9   10 ar
  15    9   25 1
  16   10   11 ar
  17   10   26 1
  18   12   13 ar
  19   12   17 ar
  20   13   14 ar
  21   13   27 1
  22   14   15 ar
  23   14   22 1
  24   15   16 ar
  25   15   28 1
  26   16   17 ar
  27   16   29 1
  28   17   30 1
  29   18   19 1
  30   18   22 1
  31   18   31 1
  32   19   20 2
  33   20   21 1
  34   21   22 2

#	End of record

