#	Name: ASD01885826
#	Creating user name:	WinNT
#	Creation time:	15. 06. 2019 19:50

#	Modifying user name:	WinNT
#	Modification time:	15. 06. 2019 19:50

#	Program:	/corina/corina34_cracker 3.40 0067  02.08.2006

@<TRIPOS>MOLECULE
ASD01885826
  56   60    0    0    0
SMALL
NO_CHARGES


@<TRIPOS>ATOM
   1 C1            -0.0160     1.3294     0.0094 C.ar    
   2 C2            -1.2520     2.0240     0.0189 C.ar    
   3 C3            -2.4596     1.2809     0.0205 C.ar    
   4 C4            -2.3700    -0.1047     0.0125 C.ar    
   5 C5            -1.1108    -0.7138     0.0033 C.ar    
   6 N6             0.0021    -0.0041     0.0020 N.ar    
   7 C7             1.1364     3.4285     0.0097 C.ar    
   8 C8            -0.0805     4.1065     0.0258 C.ar    
   9 C9            -1.2606     3.4246     0.0271 C.ar    
  10 C10           -3.7749     1.9611     0.0308 C.2     
  11 C11           -1.0240    -2.1941    -0.0047 C.2     
  12 C12            2.4227     4.2136     0.0097 C.3     
  13 N13            2.8503     4.4530     1.3945 N.3     
  14 C14            1.1821     2.0685     0.0019 C.ar    
  15 N15            0.1806    -2.7985    -0.0130 N.am    
  16 O16           -2.0389    -2.8621    -0.0037 O.2     
  17 C17            4.2074     5.0025     1.4374 C.3     
  18 C18            4.4726     5.6303     2.8092 C.3     
  19 S19            4.3700     4.3290     4.0748 S.o2    
  20 C20            2.7492     3.5993     3.6924 C.3     
  21 C21            2.7118     3.2401     2.2038 C.3     
  22 C22           -4.1737     2.9926     0.9058 C.2     
  23 N23           -5.3982     3.3304     0.6020 N.2     
  24 N24           -5.8277     2.5369    -0.4684 N.pl3   
  25 C25           -4.8227     1.7081    -0.8100 C.2     
  26 C26           -7.1422     2.6024    -1.1118 C.3     
  27 C27            5.8695     6.2543     2.8267 C.3     
  28 C28            6.3226     6.9358     4.1194 C.3     
  29 C29            6.9282     5.5916     3.7103 C.3     
  30 O30            5.3778     3.3612     3.8160 O.2     
  31 O31            4.3029     4.9425     5.3548 O.2     
  32 H32           -3.2660    -0.7077     0.0137 H       
  33 H33           -0.0889     5.1864     0.0378 H       
  34 H34           -2.1976     3.9616     0.0341 H       
  35 H35            3.1929     3.6491    -0.5159 H       
  36 H36            2.2657     5.1683    -0.4923 H       
  37 H37            2.1338     1.5582    -0.0097 H       
  38 H38            0.9908    -2.2651    -0.0139 H       
  39 H39            0.2373    -3.7668    -0.0182 H       
  40 H40            4.9272     4.2035     1.2596 H       
  41 H41            4.3145     5.7633     0.6642 H       
  42 H42            3.7262     6.3989     3.0101 H       
  43 H43            2.6032     2.6993     4.2896 H       
  44 H44            1.9621     4.3200     3.9145 H       
  45 H45            1.7629     2.7564     1.9718 H       
  46 H46            3.5301     2.5571     1.9755 H       
  47 H47           -3.5719     3.4271     1.6902 H       
  48 H48           -4.8419     0.9749    -1.6027 H       
  49 H49           -7.8253     1.9144    -0.6135 H       
  50 H50           -7.5320     3.6177    -1.0393 H       
  51 H51           -7.0473     2.3237    -2.1613 H       
  52 H52            6.2012     6.6909     1.8846 H       
  53 H53            6.9528     7.8204     4.0278 H       
  54 H54            5.6256     6.9396     4.9574 H       
  55 H55            6.6296     4.7111     4.2791 H       
  56 H56            7.9568     5.5920     3.3495 H       
@<TRIPOS>BOND
   1    1    6 ar
   2    1   14 ar
   3    1    2 ar
   4    2    3 ar
   5    2    9 ar
   6    3   10 1
   7    3    4 ar
   8    4    5 ar
   9    4   32 1
  10    5   11 1
  11    5    6 ar
  12    7   12 1
  13    7    8 ar
  14    7   14 ar
  15    8    9 ar
  16    8   33 1
  17    9   34 1
  18   10   25 2
  19   10   22 1
  20   11   15 am
  21   11   16 2
  22   12   13 1
  23   12   35 1
  24   12   36 1
  25   13   17 1
  26   13   21 1
  27   14   37 1
  28   15   38 1
  29   15   39 1
  30   17   18 1
  31   17   40 1
  32   17   41 1
  33   18   27 1
  34   18   19 1
  35   18   42 1
  36   19   20 1
  37   19   30 2
  38   19   31 2
  39   20   21 1
  40   20   43 1
  41   20   44 1
  42   21   45 1
  43   21   46 1
  44   22   23 2
  45   22   47 1
  46   23   24 1
  47   24   25 1
  48   24   26 1
  49   25   48 1
  50   26   49 1
  51   26   50 1
  52   26   51 1
  53   27   28 1
  54   27   29 1
  55   27   52 1
  56   28   29 1
  57   28   53 1
  58   28   54 1
  59   29   55 1
  60   29   56 1

#	End of record

