#	Name: ASD03740147
#	Creating user name:	WinNT
#	Creation time:	15. 06. 2019 20:46

#	Modifying user name:	WinNT
#	Modification time:	15. 06. 2019 20:46

#	Program:	/corina/corina34_cracker 3.40 0067  02.08.2006

@<TRIPOS>MOLECULE
ASD03740147
  55   57    0    0    0
SMALL
NO_CHARGES


@<TRIPOS>ATOM
   1 Cl1            0.0000     0.0000     0.0000 Cl      
   2 H2             0.0000     1.3700     0.0000 H       
   3 C3            15.6124    11.6025     6.0401 C.ar    
   4 C4            15.6312    10.2130     6.0324 C.ar    
   5 C5            14.4676     9.4977     6.0397 C.ar    
   6 C6            13.2443    10.1638     6.0554 C.ar    
   7 C7            13.2237    11.5716     6.0636 C.ar    
   8 C8            14.4285    12.2816     6.0607 C.ar    
   9 N9            11.9383     9.7487     6.0658 N.pl3   
  10 N10           11.1005    10.8685     6.0803 N.2     
  11 C11           11.8141    11.9614     6.0796 C.2     
  12 C12           11.4908     8.3537     6.0618 C.3     
  13 C13           11.3514     7.8668     7.4811 C.ar    
  14 C14           10.1476     8.0090     8.1455 C.ar    
  15 C15           10.0197     7.5624     9.4475 C.ar    
  16 C16           11.0956     6.9731    10.0849 C.ar    
  17 C17           12.2991     6.8301     9.4201 C.ar    
  18 C18           12.4257     7.2728     8.1167 C.ar    
  19 O19           11.3337    13.2329     6.0919 O.3     
  20 C20            9.9134    13.3897     6.1066 C.3     
  21 C21            9.5648    14.8794     6.1190 C.3     
  22 C22            8.0441    15.0473     6.1347 C.3     
  23 N23            7.7095    16.4776     6.1466 N.3     
  24 C24            6.2669    16.6846     5.9227 C.3     
  25 C25           16.9112    12.3667     6.0318 C.3     
  26 C26            5.7292    17.4921     7.1228 C.3     
  27 C27            7.0023    18.1848     7.6764 C.3     
  28 C28            8.0794    17.0976     7.4367 C.3     
  29 H29           16.5774     9.6925     6.0202 H       
  30 H30           14.4960     8.4181     6.0329 H       
  31 H31           14.4223    13.3616     6.0670 H       
  32 H32           10.5274     8.2826     5.5570 H       
  33 H33           12.2222     7.7390     5.5370 H       
  34 H34            9.3071     8.4694     7.6476 H       
  35 H35            9.0794     7.6742     9.9668 H       
  36 H36           10.9959     6.6249    11.1023 H       
  37 H37           13.1397     6.3700     9.9182 H       
  38 H38           13.3660     7.1610     7.5974 H       
  39 H39            9.4873    12.9242     5.2179 H       
  40 H40            9.5044    12.9135     6.9977 H       
  41 H41            9.9909    15.3449     7.0077 H       
  42 H42            9.9737    15.3557     5.2279 H       
  43 H43            7.6180    14.5818     5.2459 H       
  44 H44            7.6352    14.5710     7.0258 H       
  45 H45            6.1113    17.2437     5.0000 H       
  46 H46            5.7586    15.7221     5.8658 H       
  47 H47           17.2146    12.5564     5.0022 H       
  48 H48           16.7780    13.3152     6.5520 H       
  49 H49           17.6805    11.7811     6.5351 H       
  50 H50            5.0000    18.2324     6.7936 H       
  51 H51            5.2955    16.8283     7.8707 H       
  52 H52            7.2298    19.0905     7.1143 H       
  53 H53            6.8973    18.4028     8.7393 H       
  54 H54            8.0542    16.3560     8.2352 H       
  55 H55            9.0682    17.5513     7.3701 H       
@<TRIPOS>BOND
   1    1    2 1
   2    3    4 ar
   3    3   25 1
   4    3    8 ar
   5    4    5 ar
   6    4   29 1
   7    5    6 ar
   8    5   30 1
   9    6    7 ar
  10    6    9 1
  11    7    8 ar
  12    7   11 1
  13    8   31 1
  14    9   10 1
  15    9   12 1
  16   10   11 2
  17   11   19 1
  18   12   13 1
  19   12   32 1
  20   12   33 1
  21   13   14 ar
  22   13   18 ar
  23   14   15 ar
  24   14   34 1
  25   15   16 ar
  26   15   35 1
  27   16   17 ar
  28   16   36 1
  29   17   18 ar
  30   17   37 1
  31   18   38 1
  32   19   20 1
  33   20   21 1
  34   20   39 1
  35   20   40 1
  36   21   22 1
  37   21   41 1
  38   21   42 1
  39   22   23 1
  40   22   43 1
  41   22   44 1
  42   23   24 1
  43   23   28 1
  44   24   26 1
  45   24   45 1
  46   24   46 1
  47   25   47 1
  48   25   48 1
  49   25   49 1
  50   26   27 1
  51   26   50 1
  52   26   51 1
  53   27   28 1
  54   27   52 1
  55   27   53 1
  56   28   54 1
  57   28   55 1

#	End of record

