#	Name: ASD07930397
#	Creating user name:	WinNT
#	Creation time:	15. 06. 2019 21:12

#	Modifying user name:	WinNT
#	Modification time:	15. 06. 2019 21:12

#	Program:	/corina/corina34_cracker 3.40 0067  02.08.2006

@<TRIPOS>MOLECULE
ASD07930397
  46   48    0    0    0
SMALL
NO_CHARGES


@<TRIPOS>ATOM
   1 N1             0.0003     1.2713     0.0031 N.2     
   2 N2            -1.1613    -0.7565     0.0073 N.pl3   
   3 C3            -1.3889    -1.7915    -1.0066 C.3     
   4 C4            -0.2711    -2.8398    -0.9194 C.3     
   5 S5             1.3267    -1.9882    -1.1095 S.o2    
   6 N6             1.2081    -0.7372    -0.0153 N.am    
   7 C7             0.0131    -0.0320    -0.0013 C.2     
   8 C8             2.3109    -0.3987     0.8878 C.3     
   9 C9            -1.3842    -1.1541    -2.3975 C.3     
  10 C10           -2.7200    -2.4535    -0.7599 C.ar    
  11 C11           -3.4610    -2.1183     0.3561 C.ar    
  12 C12           -4.6880    -2.7284     0.5827 C.ar    
  13 C13           -5.1669    -3.6744    -0.3138 C.ar    
  14 C14           -4.4224    -4.0068    -1.4288 C.ar    
  15 C15           -3.2020    -3.3935    -1.6556 C.ar    
  16 N16           -5.4405    -2.3904     1.7134 N.am    
  17 C17           -6.7863    -2.3665     1.6448 C.2     
  18 O18           -7.3439    -2.5428     0.5787 O.2     
  19 C19           -7.5832    -2.1265     2.8638 C.ar    
  20 C20           -6.9457    -1.9178     4.0893 C.ar    
  21 O21            2.3891    -2.7937    -0.6179 O.2     
  22 O22            1.4099    -1.3489    -2.3758 O.2     
  23 C23           -8.9801    -2.1010     2.7963 C.ar    
  24 C24           -9.7192    -1.8750     3.9426 C.ar    
  25 C25           -9.0792    -1.6747     5.1528 C.ar    
  26 C26           -7.6950    -1.6937     5.2237 C.ar    
  27 Cl27         -10.0140    -1.3909     6.5878 Cl      
  28 F28           -2.4757    -3.7197    -2.7470 F       
  29 F29           -9.6051    -2.2962     1.6145 F       
  30 H30            0.8355     1.7646    -0.0034 H       
  31 H31           -1.8368    -0.5788     0.6803 H       
  32 H32           -0.3091    -3.3378     0.0495 H       
  33 H33           -0.3931    -3.5742    -1.7156 H       
  34 H34            2.9600     0.3349     0.4096 H       
  35 H35            1.9094     0.0186     1.8112 H       
  36 H36            2.8840    -1.2978     1.1144 H       
  37 H37           -0.4203    -0.6774    -2.5754 H       
  38 H38           -1.5534    -1.9238    -3.1505 H       
  39 H39           -2.1756    -0.4070    -2.4574 H       
  40 H40           -3.0866    -1.3825     1.0523 H       
  41 H41           -6.1206    -4.1502    -0.1392 H       
  42 H42           -4.7944    -4.7428    -2.1262 H       
  43 H43           -4.9934    -2.1733     2.5464 H       
  44 H44           -5.8674    -1.9325     4.1474 H       
  45 H45          -10.7979    -1.8545     3.8933 H       
  46 H46           -7.2024    -1.5365     6.1719 H       
@<TRIPOS>BOND
   1    1    7 2
   2    1   30 1
   3    2    3 1
   4    2    7 1
   5    2   31 1
   6    3    4 1
   7    3    9 1
   8    3   10 1
   9    4    5 1
  10    4   32 1
  11    4   33 1
  12    5    6 am
  13    5   21 2
  14    5   22 2
  15    6    7 1
  16    6    8 1
  17    8   34 1
  18    8   35 1
  19    8   36 1
  20    9   37 1
  21    9   38 1
  22    9   39 1
  23   10   11 ar
  24   10   15 ar
  25   11   12 ar
  26   11   40 1
  27   12   13 ar
  28   12   16 1
  29   13   14 ar
  30   13   41 1
  31   14   15 ar
  32   14   42 1
  33   15   28 1
  34   16   17 am
  35   16   43 1
  36   17   18 2
  37   17   19 1
  38   19   23 ar
  39   19   20 ar
  40   20   26 ar
  41   20   44 1
  42   23   24 ar
  43   23   29 1
  44   24   25 ar
  45   24   45 1
  46   25   26 ar
  47   25   27 1
  48   26   46 1

#	End of record

