#	Name: ASD01816265
#	Creating user name:	WinNT
#	Creation time:	15. 06. 2019 19:34

#	Modifying user name:	WinNT
#	Modification time:	15. 06. 2019 19:34

#	Program:	/corina/corina34_cracker 3.40 0067  02.08.2006

@<TRIPOS>MOLECULE
ASD01816265
  51   56    0    0    0
SMALL
NO_CHARGES


@<TRIPOS>ATOM
   1 C1            -0.0167     1.3813     0.0096 C.ar    
   2 C2             0.0021    -0.0041     0.0020 C.ar    
   3 C3             1.1984    -0.6909    -0.0131 C.ar    
   4 C4             2.4015     0.0059    -0.0208 C.ar    
   5 C5             2.3790     1.4106    -0.0130 C.ar    
   6 C6             1.1663     2.0916     0.0022 C.ar    
   7 N7             3.6053    -0.6772    -0.0354 N.pl3   
   8 C8             4.7970    -0.0586    -0.0430 C.2     
   9 C9             4.9000     1.3103    -0.0366 C.2     
  10 C10            3.6670     2.1301    -0.0215 C.2     
  11 C11            5.9971     2.2729    -0.0415 C.2     
  12 N12            5.4246     3.4960    -0.0303 N.am    
  13 N13            4.0323     3.3799    -0.0184 N.2     
  14 C14            6.1264     4.7081    -0.0295 C.ar    
  15 C15            6.4656     5.3173    -1.2315 C.ar    
  16 O16            7.1914     2.0229    -0.0535 O.2     
  17 C17            3.5779    -2.1419    -0.0425 C.3     
  18 C18            3.5553    -2.6371    -1.4657 C.ar    
  19 C19            4.7430    -2.8861    -2.1285 C.ar    
  20 C20            4.7255    -3.3395    -3.4331 C.ar    
  21 C21            3.5137    -3.5456    -4.0786 C.ar    
  22 C22            2.3228    -3.2951    -3.4103 C.ar    
  23 C23            2.3467    -2.8468    -2.1041 C.ar    
  24 N24            3.4927    -4.0053    -5.4028 N.pl3   
  25 C25            2.3877    -4.2463    -6.1441 C.2     
  26 C26            2.7941    -4.6753    -7.3615 C.2     
  27 C27            4.1931    -4.6976    -7.3654 C.2     
  28 N28            4.6127    -4.2906    -6.1944 N.2     
  29 C29            7.1583     6.5134    -1.2268 C.ar    
  30 C30            7.5142     7.1036    -0.0280 C.ar    
  31 C31            7.1784     6.5003     1.1701 C.ar    
  32 C32            6.4803     5.3072     1.1733 C.ar    
  33 Cl33           6.0203     4.5768    -2.7372 Cl      
  34 Cl34           6.0588     4.5510     2.6781 Cl      
  35 H35           -0.9602     1.9068     0.0169 H       
  36 H36           -0.9289    -0.5516     0.0083 H       
  37 H37            1.2004    -1.7709    -0.0185 H       
  38 H38            1.1506     3.1715     0.0077 H       
  39 H39            5.6983    -0.6536    -0.0540 H       
  40 H40            4.4657    -2.5244     0.4612 H       
  41 H41            2.6861    -2.4912     0.4779 H       
  42 H42            5.6853    -2.7256    -1.6258 H       
  43 H43            5.6534    -3.5332    -3.9505 H       
  44 H44            1.3787    -3.4542    -3.9100 H       
  45 H45            1.4207    -2.6517    -1.5837 H       
  46 H46            1.3646    -4.1197    -5.8222 H       
  47 H47            2.1520    -4.9517    -8.1847 H       
  48 H48            4.8191    -4.9951    -8.1937 H       
  49 H49            7.4223     6.9875    -2.1606 H       
  50 H50            8.0561     8.0378    -0.0274 H       
  51 H51            7.4580     6.9641     2.1045 H       
@<TRIPOS>BOND
   1    1    2 ar
   2    1    6 ar
   3    1   35 1
   4    2    3 ar
   5    2   36 1
   6    3    4 ar
   7    3   37 1
   8    4    5 ar
   9    4    7 1
  10    5    6 ar
  11    5   10 1
  12    6   38 1
  13    7    8 1
  14    7   17 1
  15    8    9 2
  16    8   39 1
  17    9   10 1
  18    9   11 1
  19   10   13 2
  20   11   12 am
  21   11   16 2
  22   12   13 1
  23   12   14 1
  24   14   15 ar
  25   14   32 ar
  26   15   29 ar
  27   15   33 1
  28   17   18 1
  29   17   40 1
  30   17   41 1
  31   18   19 ar
  32   18   23 ar
  33   19   20 ar
  34   19   42 1
  35   20   21 ar
  36   20   43 1
  37   21   22 ar
  38   21   24 1
  39   22   23 ar
  40   22   44 1
  41   23   45 1
  42   24   25 1
  43   24   28 1
  44   25   26 2
  45   25   46 1
  46   26   27 1
  47   26   47 1
  48   27   28 2
  49   27   48 1
  50   29   30 ar
  51   29   49 1
  52   30   31 ar
  53   30   50 1
  54   31   32 ar
  55   31   51 1
  56   32   34 1

#	End of record

