#	Name: ASD00431160
#	Creating user name:	WinNT
#	Creation time:	15. 06. 2019 18:35

#	Modifying user name:	WinNT
#	Modification time:	15. 06. 2019 18:35

#	Program:	/corina/corina34_cracker 3.40 0067  02.08.2006

@<TRIPOS>MOLECULE
ASD00431160
  53   56    0    0    0
SMALL
NO_CHARGES


@<TRIPOS>ATOM
   1 C1             0.2543     1.9140    -0.0487 C.2     
   2 C2             0.2692     0.4118    -0.1683 C.3     
   3 O3             1.2976     2.5254     0.0439 O.2     
   4 N4            -0.9183     2.5785    -0.0502 N.am    
   5 C5            -0.9329     4.0388     0.0660 C.3     
   6 C6            -0.7456     4.6625    -1.3185 C.3     
   7 O7            -3.4616     3.9819     0.3538 O.3     
   8 N8            -4.3399     4.5377     0.9716 N.2     
   9 C9            -3.8554     5.4764     1.7512 C.2     
  10 C10           -2.4442     5.4650     1.5517 C.2     
  11 C11           -2.2520     4.4837     0.6431 C.2     
  12 S12           -3.9417     7.6184     3.6883 S.3     
  13 C13           -5.5066     8.0110     4.2533 C.2     
  14 N14           -6.3932     7.2499     3.6891 N.2     
  15 C15           -5.9561     6.3577     2.8277 C.2     
  16 C16           -4.6180     6.3642     2.6522 C.2     
  17 O17           -5.7817     8.9783     5.1603 O.3     
  18 C18           -7.0866     9.2420     5.4363 C.ar    
  19 C19           -7.8637     8.2938     6.0856 C.ar    
  20 C20           -9.1893     8.5617     6.3659 C.ar    
  21 C21           -9.7437     9.7789     5.9982 C.ar    
  22 C22           -8.9668    10.7271     5.3489 C.ar    
  23 C23           -7.6396    10.4615     5.0737 C.ar    
  24 O24          -11.0488    10.0425     6.2737 O.3     
  25 C25          -13.5723    12.7126     5.4941 C.3     
  26 C26          -13.0548    11.2995     5.7750 C.3     
  27 C27          -11.5325    11.3447     5.9387 C.3     
  28 C28          -11.1795    12.3266     7.0601 C.3     
  29 C29          -11.7694    13.7001     6.7295 C.3     
  30 O30          -13.1834    13.5815     6.5599 O.3     
  31 H31            1.2996     0.0564    -0.1536 H       
  32 H32           -0.2776    -0.0246     0.6675 H       
  33 H33           -0.2034     0.1172    -1.1052 H       
  34 H34           -1.7526     2.0898    -0.1283 H       
  35 H35           -0.1230     4.3592     0.7214 H       
  36 H36           -1.5554     4.3421    -1.9739 H       
  37 H37           -0.7564     5.7490    -1.2320 H       
  38 H38            0.2086     4.3407    -1.7359 H       
  39 H39           -1.7011     6.0945     2.0185 H       
  40 H40           -6.6122     5.6776     2.3050 H       
  41 H41           -7.4322     7.3459     6.3716 H       
  42 H42           -9.7944     7.8234     6.8711 H       
  43 H43           -9.3986    11.6746     5.0623 H       
  44 H44           -7.0336    11.2015     4.5721 H       
  45 H45          -13.1495    13.0750     4.5570 H       
  46 H46          -14.6595    12.6934     5.4191 H       
  47 H47          -13.5086    10.9208     6.6909 H       
  48 H48          -13.3124    10.6450     4.9422 H       
  49 H49          -11.0751    11.6747     5.0059 H       
  50 H50          -11.5954    11.9687     8.0019 H       
  51 H51          -10.0959    12.4068     7.1464 H       
  52 H52          -11.5579    14.3923     7.5446 H       
  53 H53          -11.3230    14.0754     5.8086 H       
@<TRIPOS>BOND
   1    1    2 1
   2    1    3 2
   3    1    4 am
   4    2   31 1
   5    2   32 1
   6    2   33 1
   7    4    5 1
   8    4   34 1
   9    5    6 1
  10    5   11 1
  11    5   35 1
  12    6   36 1
  13    6   37 1
  14    6   38 1
  15    7    8 1
  16    7   11 1
  17    8    9 2
  18    9   10 1
  19    9   16 1
  20   10   11 2
  21   10   39 1
  22   12   13 1
  23   12   16 1
  24   13   14 2
  25   13   17 1
  26   14   15 1
  27   15   16 2
  28   15   40 1
  29   17   18 1
  30   18   19 ar
  31   18   23 ar
  32   19   20 ar
  33   19   41 1
  34   20   21 ar
  35   20   42 1
  36   21   22 ar
  37   21   24 1
  38   22   23 ar
  39   22   43 1
  40   23   44 1
  41   24   27 1
  42   25   26 1
  43   25   30 1
  44   25   45 1
  45   25   46 1
  46   26   27 1
  47   26   47 1
  48   26   48 1
  49   27   28 1
  50   27   49 1
  51   28   29 1
  52   28   50 1
  53   28   51 1
  54   29   30 1
  55   29   52 1
  56   29   53 1

#	End of record

