#	Name: ASD01148832
#	Creating user name:	WinNT
#	Creation time:	15. 06. 2019 19:03

#	Modifying user name:	WinNT
#	Modification time:	15. 06. 2019 19:03

#	Program:	/corina/corina34_cracker 3.40 0067  02.08.2006

@<TRIPOS>MOLECULE
ASD01148832
  44   46    0    0    0
SMALL
NO_CHARGES


@<TRIPOS>ATOM
   1 N1            -0.0155     1.3412     0.0826 N.pl3   
   2 C2             0.0020     0.0054    -0.1104 C.2     
   3 C3             1.3175    -0.4067    -0.1562 C.2     
   4 C4             2.1209     0.7506     0.0196 C.2     
   5 C5             1.2771     1.8041     0.1631 C.2     
   6 C6             1.7971    -1.7843    -0.3497 C.2     
   7 O7             1.0001    -2.6914    -0.4886 O.2     
   8 O8             3.1203    -2.0402    -0.3730 O.3     
   9 C9            -1.1681     2.1320     0.1796 C.ar    
  10 C10           -2.0095     2.0036     1.2766 C.ar    
  11 C11           -3.1447     2.7848     1.3696 C.ar    
  12 C12           -3.4436     3.6941     0.3716 C.ar    
  13 C13           -2.6078     3.8239    -0.7224 C.ar    
  14 C14           -1.4682     3.0496    -0.8183 C.ar    
  15 N15           -4.6610     4.5299     0.4743 N.pl3   
  16 O16           -5.3982     4.4162     1.4371 O.2     
  17 O17           -4.9255     5.3312    -0.4040 O.2     
  18 C18           -1.2073    -0.8827    -0.2511 C.3     
  19 C19            1.6797     3.2120     0.3702 C.ar    
  20 C20            0.7824     4.1219     0.9310 C.ar    
  21 C21            1.1637     5.4338     1.1222 C.ar    
  22 C22            2.4339     5.8484     0.7589 C.ar    
  23 C23            3.3285     4.9501     0.2021 C.ar    
  24 C24            2.9603     3.6345     0.0110 C.ar    
  25 Cl25           2.9065     7.5010     1.0021 Cl      
  26 C26            3.5210    -3.4222    -0.5679 C.3     
  27 C27            5.0482    -3.5154    -0.5657 C.3     
  28 H28            3.2002     0.7861     0.0363 H       
  29 H29           -1.7768     1.2933     2.0562 H       
  30 H30           -3.7998     2.6852     2.2225 H       
  31 H31           -2.8443     4.5345    -1.5006 H       
  32 H32           -0.8134     3.1546    -1.6707 H       
  33 H33           -1.4886    -0.9497    -1.3020 H       
  34 H34           -0.9730    -1.8780     0.1266 H       
  35 H35           -2.0350    -0.4627     0.3205 H       
  36 H36           -0.2087     3.7997     1.2144 H       
  37 H37            0.4700     6.1389     1.5558 H       
  38 H38            4.3179     5.2792    -0.0793 H       
  39 H39            3.6604     2.9337    -0.4193 H       
  40 H40            3.1184    -4.0345     0.2389 H       
  41 H41            3.1365    -3.7807    -1.5228 H       
  42 H42            5.4508    -2.9031    -1.3726 H       
  43 H43            5.4327    -3.1568     0.3891 H       
  44 H44            5.3491    -4.5528    -0.7120 H       
@<TRIPOS>BOND
   1    1    2 1
   2    1    5 1
   3    1    9 1
   4    2    3 2
   5    2   18 1
   6    3    4 1
   7    3    6 1
   8    4    5 2
   9    4   28 1
  10    5   19 1
  11    6    7 2
  12    6    8 1
  13    8   26 1
  14    9   10 ar
  15    9   14 ar
  16   10   11 ar
  17   10   29 1
  18   11   12 ar
  19   11   30 1
  20   12   13 ar
  21   12   15 1
  22   13   14 ar
  23   13   31 1
  24   14   32 1
  25   15   16 2
  26   15   17 2
  27   18   33 1
  28   18   34 1
  29   18   35 1
  30   19   20 ar
  31   19   24 ar
  32   20   21 ar
  33   20   36 1
  34   21   22 ar
  35   21   37 1
  36   22   23 ar
  37   22   25 1
  38   23   24 ar
  39   23   38 1
  40   24   39 1
  41   26   27 1
  42   26   40 1
  43   26   41 1
  44   27   42 1
  45   27   43 1
  46   27   44 1

#	End of record

