#	Name: ASD00170005
#	Creating user name:	WinNT
#	Creation time:	15. 06. 2019 18:31

#	Modifying user name:	WinNT
#	Modification time:	15. 06. 2019 18:31

#	Program:	/corina/corina34_cracker 3.40 0067  02.08.2006

@<TRIPOS>MOLECULE
ASD00170005
  50   53    0    0    0
SMALL
NO_CHARGES


@<TRIPOS>ATOM
   1 C1             0.4433     1.7905     0.7280 C.ar    
   2 C2             3.8729     8.8429    -5.2505 C.ar    
   3 C3             3.5545     7.5326    -4.9622 C.ar    
   4 C4             4.5194     6.6880    -4.4100 C.ar    
   5 C5             5.8017     7.1764    -4.1526 C.ar    
   6 C6             6.1081     8.4887    -4.4448 C.ar    
   7 C7             5.1467     9.3219    -4.9925 C.ar    
   8 C8             4.1842     5.2818    -4.0985 C.2     
   9 C9             5.2258     4.3685    -3.6289 C.2     
  10 O10            3.0411     4.8841    -4.2329 O.2     
  11 Cl11           5.5400    10.9729    -5.3577 Cl      
  12 C12            5.5135     4.1305    -2.2301 C.2     
  13 C13            6.4972     3.2651    -2.0398 C.2     
  14 S14            7.1304     2.6895    -3.5714 S.3     
  15 C15            6.0345     3.6379    -4.4685 C.2     
  16 N16            5.9720     3.6736    -5.8467 N.pl3   
  17 C17            4.7687     4.8006    -1.1043 C.3     
  18 N18            3.4886     4.1136    -0.8868 N.3     
  19 C19            2.8427     4.5819     0.3473 C.3     
  20 C20            1.4793     3.9024     0.4959 C.3     
  21 N21            1.6617     2.4444     0.5210 N.3     
  22 C22            2.3077     1.9761    -0.7131 C.3     
  23 C23            3.6710     2.6556    -0.8617 C.3     
  24 C24            0.3993     0.4036     0.7846 C.ar    
  25 C25           -0.8054    -0.2403     0.9892 C.ar    
  26 C26           -1.9687     0.4960     1.1374 C.ar    
  27 C27           -1.9272     1.8789     1.0809 C.ar    
  28 C28           -0.7237     2.5271     0.8831 C.ar    
  29 F29           -3.1461    -0.1359     1.3370 F       
  30 H30            3.1287     9.4960    -5.6818 H       
  31 H31            2.5609     7.1603    -5.1634 H       
  32 H32            6.5520     6.5277    -3.7252 H       
  33 H33            7.0997     8.8677    -4.2458 H       
  34 H34            6.8615     2.9555    -1.0714 H       
  35 H35            6.6307     3.1957    -6.3746 H       
  36 H36            5.2694     4.1766    -6.2875 H       
  37 H37            5.3663     4.7524    -0.1940 H       
  38 H38            4.5824     5.8432    -1.3618 H       
  39 H39            3.4691     4.3313     1.2034 H       
  40 H40            2.7072     5.6624     0.2994 H       
  41 H41            1.0109     4.2263     1.4253 H       
  42 H42            0.8435     4.1749    -0.3464 H       
  43 H43            2.4432     0.8956    -0.6652 H       
  44 H44            1.6813     2.2267    -1.5692 H       
  45 H45            4.1394     2.3317    -1.7911 H       
  46 H46            4.3069     2.3831    -0.0194 H       
  47 H47            1.3062    -0.1711     0.6684 H       
  48 H48           -0.8402    -1.3188     1.0333 H       
  49 H49           -2.8358     2.4511     1.1964 H       
  50 H50           -0.6918     3.6058     0.8391 H       
@<TRIPOS>BOND
   1    1   24 ar
   2    1   21 1
   3    1   28 ar
   4    2    3 ar
   5    2    7 ar
   6    2   30 1
   7    3    4 ar
   8    3   31 1
   9    4    5 ar
  10    4    8 1
  11    5    6 ar
  12    5   32 1
  13    6    7 ar
  14    6   33 1
  15    7   11 1
  16    8    9 1
  17    8   10 2
  18    9   12 1
  19    9   15 2
  20   12   13 2
  21   12   17 1
  22   13   14 1
  23   13   34 1
  24   14   15 1
  25   15   16 1
  26   16   35 1
  27   16   36 1
  28   17   18 1
  29   17   37 1
  30   17   38 1
  31   18   19 1
  32   18   23 1
  33   19   20 1
  34   19   39 1
  35   19   40 1
  36   20   21 1
  37   20   41 1
  38   20   42 1
  39   21   22 1
  40   22   23 1
  41   22   43 1
  42   22   44 1
  43   23   45 1
  44   23   46 1
  45   24   25 ar
  46   24   47 1
  47   25   26 ar
  48   25   48 1
  49   26   27 ar
  50   26   29 1
  51   27   28 ar
  52   27   49 1
  53   28   50 1

#	End of record

