#	Name: ASD01230556
#	Creating user name:	WinNT
#	Creation time:	15. 06. 2019 19:14

#	Modifying user name:	WinNT
#	Modification time:	15. 06. 2019 19:14

#	Program:	/corina/corina34_cracker 3.40 0067  02.08.2006

@<TRIPOS>MOLECULE
ASD01230556
  43   46    0    0    0
SMALL
NO_CHARGES


@<TRIPOS>ATOM
   1 S1             1.2298     0.9004     1.3235 S.o2    
   2 N2             0.8974    -0.6727     0.9325 N.am    
   3 C3             1.7529    -1.4292     0.2886 C.2     
   4 N4             2.9921    -1.0417    -0.1354 N.pl3   
   5 C5             3.5210     0.3164     0.0155 C.3     
   6 C6             3.0502     0.9340     1.3352 C.3     
   7 C7             1.3122    -2.8134     0.0136 C.2     
   8 C8             2.1747    -3.6777    -0.6251 C.2     
   9 C9             3.4451    -3.2176    -0.9981 C.2     
  10 C10            3.8175    -1.9502    -0.7501 C.2     
  11 C11           -0.0380    -3.2652     0.4196 C.ar    
  12 C12           -0.1810    -4.2603     1.3873 C.ar    
  13 C13           -1.4400    -4.6785     1.7629 C.ar    
  14 C14           -2.5649    -4.1108     1.1793 C.ar    
  15 C15           -2.4265    -3.1203     0.2160 C.ar    
  16 C16           -1.1708    -2.6930    -0.1604 C.ar    
  17 O17           -3.8041    -4.5258     1.5516 O.3     
  18 C18           -4.2902    -4.0922     2.7417 C.ar    
  19 C19           -5.5057    -4.5787     3.2069 C.ar    
  20 C20           -5.9901    -4.1287     4.4224 C.ar    
  21 C21           -5.2379    -3.2033     5.1334 C.ar    
  22 C22           -4.0384    -2.7631     4.6104 C.ar    
  23 N23           -3.5999    -3.2144     3.4506 N.ar    
  24 C24           -7.3043    -4.6312     4.9621 C.3     
  25 F25           -7.0827    -5.7702     5.7435 F       
  26 F26           -7.8977    -3.6360     5.7461 F       
  27 F27           -8.1527    -4.9539     3.8975 F       
  28 O28            0.7184     1.6554     0.2337 O.2     
  29 O29            0.7139     1.0587     2.6380 O.2     
  30 H30            4.6104     0.2812     0.0036 H       
  31 H31            3.1728     0.9320    -0.8139 H       
  32 H32            3.4022     1.9628     1.4104 H       
  33 H33            3.4271     0.3492     2.1743 H       
  34 H34            1.8765    -4.6943    -0.8348 H       
  35 H35            4.1329    -3.8894    -1.4898 H       
  36 H36            4.8064    -1.6335    -1.0470 H       
  37 H37            0.6935    -4.7025     1.8413 H       
  38 H38           -1.5514    -5.4489     2.5115 H       
  39 H39           -3.3036    -2.6812    -0.2360 H       
  40 H40           -1.0640    -1.9195    -0.9065 H       
  41 H41           -6.0651    -5.2982     2.6274 H       
  42 H42           -5.5876    -2.8315     6.0852 H       
  43 H43           -3.4497    -2.0430     5.1594 H       
@<TRIPOS>BOND
   1    1    2 am
   2    1    6 1
   3    1   28 2
   4    1   29 2
   5    2    3 2
   6    3    4 1
   7    3    7 1
   8    4    5 1
   9    4   10 1
  10    5    6 1
  11    5   30 1
  12    5   31 1
  13    6   32 1
  14    6   33 1
  15    7    8 2
  16    7   11 1
  17    8    9 1
  18    8   34 1
  19    9   10 2
  20    9   35 1
  21   10   36 1
  22   11   12 ar
  23   11   16 ar
  24   12   13 ar
  25   12   37 1
  26   13   14 ar
  27   13   38 1
  28   14   15 ar
  29   14   17 1
  30   15   16 ar
  31   15   39 1
  32   16   40 1
  33   17   18 1
  34   18   19 ar
  35   18   23 ar
  36   19   20 ar
  37   19   41 1
  38   20   21 ar
  39   20   24 1
  40   21   22 ar
  41   21   42 1
  42   22   23 ar
  43   22   43 1
  44   24   25 1
  45   24   26 1
  46   24   27 1

#	End of record

