#	Name: ASD01022013
#	Creating user name:	WinNT
#	Creation time:	15. 06. 2019 18:56

#	Modifying user name:	WinNT
#	Modification time:	15. 06. 2019 18:56

#	Program:	/corina/corina34_cracker 3.40 0067  02.08.2006

@<TRIPOS>MOLECULE
ASD01022013
  70   74    0    0    0
SMALL
NO_CHARGES


@<TRIPOS>ATOM
   1 C1            -0.0167     1.3831     0.0096 C.ar    
   2 C2             0.0021    -0.0041     0.0020 C.ar    
   3 C3             1.2141    -0.6789    -0.0132 C.ar    
   4 C4             2.3989     0.0314    -0.0207 C.ar    
   5 C5             2.3774     1.4139    -0.0126 C.ar    
   6 C6             1.1708     2.0889     0.0021 C.ar    
   7 O7            -1.1648    -0.7006     0.0099 O.3     
   8 C8             3.6714     2.1863    -0.0198 C.3     
   9 C9             4.0963     2.4560    -1.4647 C.3     
  10 O10            5.3233     3.1884    -1.4715 O.3     
  11 C11            5.8425     3.5118    -2.6860 C.ar    
  12 C12            5.1786     3.1284    -3.8481 C.ar    
  13 C13            5.6914     3.4472    -5.0859 C.ar    
  14 C14            6.8819     4.1584    -5.1840 C.ar    
  15 C15            7.5558     4.5489    -4.0110 C.ar    
  16 C16            7.0229     4.2238    -2.7615 C.ar    
  17 N17            7.6268     4.6132    -6.2532 N.pl3   
  18 C18            8.7353     5.2716    -5.8015 C.2     
  19 C19            8.7469     5.2659    -4.4548 C.2     
  20 C20            7.2803     4.4185    -7.6632 C.3     
  21 C21            6.4199     5.5890    -8.1433 C.3     
  22 C22            6.0581     5.3856    -9.6160 C.3     
  23 C23            5.1977     6.5561   -10.0961 C.3     
  24 C24            4.8358     6.3527   -11.5687 C.3     
  25 C25            3.9884     7.5056   -12.0416 C.ar    
  26 C26            4.3806     8.2320   -13.1498 C.ar    
  27 C27            3.5937     9.2909   -13.5768 C.ar    
  28 C28            2.4369     9.5804   -12.8697 C.ar    
  29 C29            2.1086     8.8093   -11.7705 C.ar    
  30 N30            2.8782     7.8062   -11.3963 N.ar    
  31 C31            9.8082     5.9203    -6.6458 C.3     
  32 C32           11.0414     6.1588    -5.7674 C.3     
  33 C33           10.6211     6.8698    -4.4780 C.3     
  34 C34            9.8165     5.9001    -3.6035 C.3     
  35 N35           11.8178     7.3102    -3.7485 N.3     
  36 Cl36          12.2799     8.8864    -4.2241 Cl      
  37 H37           -0.9590     1.9108     0.0170 H       
  38 H38            1.2314    -1.7588    -0.0188 H       
  39 H39            3.3426    -0.4935    -0.0325 H       
  40 H40            1.1567     3.1688     0.0084 H       
  41 H41           -1.5113    -0.8975    -0.8712 H       
  42 H42            3.5318     3.1338     0.5007 H       
  43 H43            4.4441     1.6055     0.4838 H       
  44 H44            4.2359     1.5085    -1.9852 H       
  45 H45            3.3236     3.0369    -1.9683 H       
  46 H46            4.2534     2.5757    -3.7783 H       
  47 H47            5.1684     3.1442    -5.9810 H       
  48 H48            7.5361     4.5208    -1.8588 H       
  49 H49            8.1924     4.3699    -8.2581 H       
  50 H50            6.7234     3.4882    -7.7754 H       
  51 H51            5.5078     5.6375    -7.5485 H       
  52 H52            6.9768     6.5192    -8.0312 H       
  53 H53            6.9701     5.3370   -10.2109 H       
  54 H54            5.5012     4.4553    -9.7281 H       
  55 H55            4.2856     6.6046    -9.5012 H       
  56 H56            5.7545     7.4863    -9.9839 H       
  57 H57            5.7479     6.3041   -12.1636 H       
  58 H58            4.2790     5.4224   -11.6809 H       
  59 H59            5.2887     7.9784   -13.6765 H       
  60 H60            3.8755     9.8765   -14.4394 H       
  61 H61            1.8004    10.3983   -13.1737 H       
  62 H62            1.2093     9.0286   -11.2141 H       
  63 H63           10.0705     5.2620    -7.4740 H       
  64 H64            9.4444     6.8724    -7.0322 H       
  65 H65           11.5023     5.2023    -5.5210 H       
  66 H66           11.7574     6.7786    -6.3071 H       
  67 H67           10.0053     7.7350    -4.7237 H       
  68 H68            9.3542     6.4459    -2.7810 H       
  69 H69           10.4772     5.1280    -3.2092 H       
  70 H70           11.6717     7.2617    -2.7513 H       
@<TRIPOS>BOND
   1    1    2 ar
   2    1    6 ar
   3    1   37 1
   4    2    3 ar
   5    2    7 1
   6    3    4 ar
   7    3   38 1
   8    4    5 ar
   9    4   39 1
  10    5    6 ar
  11    5    8 1
  12    6   40 1
  13    7   41 1
  14    8    9 1
  15    8   42 1
  16    8   43 1
  17    9   10 1
  18    9   44 1
  19    9   45 1
  20   10   11 1
  21   11   12 ar
  22   11   16 ar
  23   12   13 ar
  24   12   46 1
  25   13   14 ar
  26   13   47 1
  27   14   15 ar
  28   14   17 1
  29   15   16 ar
  30   15   19 1
  31   16   48 1
  32   17   18 1
  33   17   20 1
  34   18   19 2
  35   18   31 1
  36   19   34 1
  37   20   21 1
  38   20   49 1
  39   20   50 1
  40   21   22 1
  41   21   51 1
  42   21   52 1
  43   22   23 1
  44   22   53 1
  45   22   54 1
  46   23   24 1
  47   23   55 1
  48   23   56 1
  49   24   25 1
  50   24   57 1
  51   24   58 1
  52   25   26 ar
  53   25   30 ar
  54   26   27 ar
  55   26   59 1
  56   27   28 ar
  57   27   60 1
  58   28   29 ar
  59   28   61 1
  60   29   30 ar
  61   29   62 1
  62   31   32 1
  63   31   63 1
  64   31   64 1
  65   32   33 1
  66   32   65 1
  67   32   66 1
  68   33   34 1
  69   33   35 1
  70   33   67 1
  71   34   68 1
  72   34   69 1
  73   35   36 1
  74   35   70 1

#	End of record

