#	Name: ASD00890004
#	Creating user name:	WinNT
#	Creation time:	15. 06. 2019 18:53

#	Modifying user name:	WinNT
#	Modification time:	15. 06. 2019 18:53

#	Program:	/corina/corina34_cracker 3.40 0067  02.08.2006

@<TRIPOS>MOLECULE
ASD00890004
  50   53    0    0    0
SMALL
NO_CHARGES


@<TRIPOS>ATOM
   1 C1             0.2199     1.2021    -0.1958 C.ar    
   2 C2             0.3261    -0.1725    -0.3096 C.ar    
   3 C3             1.5686    -0.7655    -0.4047 C.ar    
   4 C4             2.7172     0.0228    -0.3864 C.ar    
   5 C5             2.6046     1.4064    -0.2721 C.ar    
   6 C6             1.3568     1.9893    -0.1771 C.ar    
   7 S7             1.2125     3.7394    -0.0330 S.o2    
   8 O8            -0.0437     3.9891     0.5826 O.2     
   9 O9             2.4454     4.2011     0.5018 O.2     
  10 N10            1.1105     4.3510    -1.5686 N.am    
  11 C11            4.0566    -0.6097    -0.4879 C.2     
  12 C12            4.3109    -1.9452    -0.6034 C.2     
  13 N13            5.6485    -2.1017    -0.6671 N.pl3   
  14 N14            6.2414    -0.8357    -0.5896 N.2     
  15 C15            5.2955     0.0602    -0.4886 C.2     
  16 C16            6.3590    -3.3766    -0.7948 C.3     
  17 C17            7.2700    -3.3259    -1.9942 C.ar    
  18 C18            8.5710    -2.8795    -1.8555 C.ar    
  19 C19            9.4067    -2.8330    -2.9557 C.ar    
  20 C20            8.9416    -3.2333    -4.1944 C.ar    
  21 C21            7.6409    -3.6805    -4.3328 C.ar    
  22 C22            6.8066    -3.7311    -3.2319 C.ar    
  23 C23            0.0676     3.9665    -2.4014 C.ar    
  24 C24            0.2878     3.8028    -3.7785 C.ar    
  25 C25           -0.7705     3.4156    -4.6054 C.ar    
  26 C26           -2.0202     3.1975    -4.0657 C.ar    
  27 C27           -2.2336     3.3603    -2.7051 C.ar    
  28 C28           -1.1973     3.7366    -1.8753 C.ar    
  29 C29            1.6256     4.0380    -4.3482 C.2     
  30 O30            1.8323     3.8797    -5.6704 O.3     
  31 O31            2.5430     4.3749    -3.6258 O.2     
  32 Cl32          -3.3334     2.7173    -5.0945 Cl      
  33 H33           -0.7545     1.6626    -0.1258 H       
  34 H34           -0.5649    -0.7826    -0.3237 H       
  35 H35            1.6505    -1.8388    -0.4928 H       
  36 H36            3.4918     2.0219    -0.2571 H       
  37 H37            1.7792     4.9776    -1.8864 H       
  38 H38            3.5741    -2.7341    -0.6375 H       
  39 H39            5.4391     1.1278    -0.4112 H       
  40 H40            6.9503    -3.5546     0.1034 H       
  41 H41            5.6373    -4.1837    -0.9206 H       
  42 H42            8.9343    -2.5668    -0.8878 H       
  43 H43           10.4229    -2.4836    -2.8475 H       
  44 H44            9.5943    -3.1963    -5.0540 H       
  45 H45            7.2775    -3.9929    -5.3007 H       
  46 H46            5.7904    -4.0805    -3.3400 H       
  47 H47           -0.6095     3.2879    -5.6656 H       
  48 H48           -3.2162     3.1871    -2.2917 H       
  49 H49           -1.3719     3.8608    -0.8168 H       
  50 H50            2.7270     4.0454    -5.9979 H       
@<TRIPOS>BOND
   1    1    2 ar
   2    1    6 ar
   3    1   33 1
   4    2    3 ar
   5    2   34 1
   6    3    4 ar
   7    3   35 1
   8    4    5 ar
   9    4   11 1
  10    5    6 ar
  11    5   36 1
  12    6    7 1
  13    7    8 2
  14    7    9 2
  15    7   10 am
  16   10   23 1
  17   10   37 1
  18   11   12 2
  19   11   15 1
  20   12   13 1
  21   12   38 1
  22   13   14 1
  23   13   16 1
  24   14   15 2
  25   15   39 1
  26   16   17 1
  27   16   40 1
  28   16   41 1
  29   17   18 ar
  30   17   22 ar
  31   18   19 ar
  32   18   42 1
  33   19   20 ar
  34   19   43 1
  35   20   21 ar
  36   20   44 1
  37   21   22 ar
  38   21   45 1
  39   22   46 1
  40   23   24 ar
  41   23   28 ar
  42   24   25 ar
  43   24   29 1
  44   25   26 ar
  45   25   47 1
  46   26   27 ar
  47   26   32 1
  48   27   28 ar
  49   27   48 1
  50   28   49 1
  51   29   30 1
  52   29   31 2
  53   30   50 1

#	End of record

