#	Name: ASD00360006
#	Creating user name:	WinNT
#	Creation time:	15. 06. 2019 18:35

#	Modifying user name:	WinNT
#	Modification time:	15. 06. 2019 18:35

#	Program:	/corina/corina34_cracker 3.40 0067  02.08.2006

@<TRIPOS>MOLECULE
ASD00360006
  30   32    0    0    0
SMALL
NO_CHARGES


@<TRIPOS>ATOM
   1 C1            -0.0168     1.3866     0.0097 C.ar    
   2 C2             0.0021    -0.0041     0.0020 C.ar    
   3 C3             1.2083    -0.6880    -0.0133 C.ar    
   4 C4             2.4139     0.0084    -0.0213 C.ar    
   5 C5             2.4119     1.3968    -0.0134 C.ar    
   6 C6             1.1880     2.0964     0.0020 C.ar    
   7 C7             1.1889     3.5699     0.0108 C.2     
   8 C8             3.6844     2.1500    -0.0189 C.2     
   9 C9             3.6671     3.5949     0.2967 C.ar    
  10 C10            2.4420     4.2895     0.3116 C.ar    
  11 C11            2.4248     5.6534     0.6101 C.ar    
  12 C12            4.8472     4.2712     0.5809 C.ar    
  13 C13            4.8152     5.6254     0.8756 C.ar    
  14 C14            3.6192     6.3121     0.8916 C.ar    
  15 O15            1.2136    -2.0455    -0.0202 O.3     
  16 O16            4.7307     1.5892    -0.2790 O.2     
  17 O17            0.1680     4.1866    -0.2276 O.2     
  18 O18            1.2514     6.3329     0.6263 O.3     
  19 O19           -1.1987     2.0514     0.0189 O.3     
  20 Cl20          -1.4919    -0.8881     0.0123 Cl      
  21 C21            6.0983     6.3534     1.1836 C.3     
  22 H22            3.3496    -0.5309    -0.0333 H       
  23 H23            5.7887     3.7421     0.5726 H       
  24 H24            3.6089     7.3671     1.1224 H       
  25 H25            1.2064    -2.4344    -0.9056 H       
  26 H26            0.8135     6.3411     1.4884 H       
  27 H27           -1.5373     2.2395     0.9049 H       
  28 H28            6.5224     6.7486     0.2605 H       
  29 H29            5.8942     7.1747     1.8705 H       
  30 H30            6.8064     5.6633     1.6424 H       
@<TRIPOS>BOND
   1    1    2 ar
   2    1    6 ar
   3    1   19 1
   4    2    3 ar
   5    2   20 1
   6    3    4 ar
   7    3   15 1
   8    4    5 ar
   9    4   22 1
  10    5    6 ar
  11    5    8 1
  12    6    7 1
  13    7   10 1
  14    7   17 2
  15    8    9 1
  16    8   16 2
  17    9   12 ar
  18    9   10 ar
  19   10   11 ar
  20   11   14 ar
  21   11   18 1
  22   12   13 ar
  23   12   23 1
  24   13   14 ar
  25   13   21 1
  26   14   24 1
  27   15   25 1
  28   18   26 1
  29   19   27 1
  30   21   28 1
  31   21   29 1
  32   21   30 1

#	End of record

