#	Name: ASD01913841
#	Creating user name:	WinNT
#	Creation time:	15. 06. 2019 20:02

#	Modifying user name:	WinNT
#	Modification time:	15. 06. 2019 20:02

#	Program:	/corina/corina34_cracker 3.40 0067  02.08.2006

@<TRIPOS>MOLECULE
ASD01913841
  45   47    0    0    0
SMALL
NO_CHARGES


@<TRIPOS>ATOM
   1 C1            -0.2245     1.4151     0.2143 C.ar    
   2 C2            -0.1433    -0.0130     0.1458 C.1     
   3 C3            -0.0768    -1.1838     0.0896 C.1     
   4 C4             0.0044    -2.6118     0.0210 C.ar    
   5 C5             0.0868    -3.2617    -1.2196 C.ar    
   6 C6             0.1560    -5.3344    -0.0280 C.ar    
   7 N7             0.0830    -4.6918     1.1280 N.ar    
   8 C8             0.0085    -3.3785     1.1884 C.ar    
   9 C9             0.1632    -4.6399    -1.2340 C.ar    
  10 N10            0.2331    -6.7250    -0.0364 N.am    
  11 C11           -0.3063     2.0550     1.4539 C.ar    
  12 C12           -0.3843     3.4307     1.5121 C.ar    
  13 C13           -0.2949     3.5508    -0.8840 C.ar    
  14 C14           -0.2164     2.1758    -0.9579 C.ar    
  15 C15           -0.3820     4.1771     0.3469 C.ar    
  16 C16           -0.8980    -7.4458    -0.0236 C.2     
  17 N17           -0.9003    -8.7872    -0.0198 N.am    
  18 C18            0.3484    -9.5507    -0.0421 C.3     
  19 C19            1.4509    -8.7315     0.6373 C.3     
  20 C20            1.5467    -7.3701    -0.0653 C.3     
  21 O21           -1.9635    -6.8602    -0.0146 O.2     
  22 C22            0.1548   -10.8695     0.7091 C.3     
  23 C23            0.7453    -9.8396    -1.4912 C.3     
  24 C24           -2.1785    -9.5026     0.0077 C.3     
  25 H25            0.0901    -2.6977    -2.1406 H       
  26 H26           -0.0497    -2.8896     2.1496 H       
  27 H27            0.2274    -5.1734    -2.1708 H       
  28 H28           -0.3089     1.4736     2.3641 H       
  29 H29           -0.4476     3.9267     2.4694 H       
  30 H30           -0.2885     4.1401    -1.7891 H       
  31 H31           -0.1481     1.6883    -1.9192 H       
  32 H32           -0.4436     5.2541     0.3985 H       
  33 H33            1.2044    -8.5875     1.6893 H       
  34 H34            2.4027    -9.2553     0.5500 H       
  35 H35            1.8655    -7.5146    -1.0976 H       
  36 H36            2.2691    -6.7415     0.4554 H       
  37 H37           -0.6335   -11.4490     0.2285 H       
  38 H38            1.0851   -11.4374     0.6919 H       
  39 H39           -0.1251   -10.6618     1.7418 H       
  40 H40            0.8856    -8.8990    -2.0238 H       
  41 H41            1.6752   -10.4081    -1.5068 H       
  42 H42           -0.0420   -10.4174    -1.9753 H       
  43 H43           -2.9972    -8.7832     0.0220 H       
  44 H44           -2.2623   -10.1309    -0.8790 H       
  45 H45           -2.2269   -10.1259     0.9006 H       
@<TRIPOS>BOND
   1    1    2 1
   2    1   11 ar
   3    1   14 ar
   4    2    3 3
   5    3    4 1
   6    4    5 ar
   7    4    8 ar
   8    5    9 ar
   9    5   25 1
  10    6    7 ar
  11    6   10 1
  12    6    9 ar
  13    7    8 ar
  14    8   26 1
  15    9   27 1
  16   10   16 am
  17   10   20 1
  18   11   12 ar
  19   11   28 1
  20   12   15 ar
  21   12   29 1
  22   13   14 ar
  23   13   15 ar
  24   13   30 1
  25   14   31 1
  26   15   32 1
  27   16   17 am
  28   16   21 2
  29   17   18 1
  30   17   24 1
  31   18   19 1
  32   18   22 1
  33   18   23 1
  34   19   20 1
  35   19   33 1
  36   19   34 1
  37   20   35 1
  38   20   36 1
  39   22   37 1
  40   22   38 1
  41   22   39 1
  42   23   40 1
  43   23   41 1
  44   23   42 1
  45   24   43 1
  46   24   44 1
  47   24   45 1

#	End of record

