#	Name: ASD03091595
#	Creating user name:	WinNT
#	Creation time:	15. 06. 2019 20:31

#	Modifying user name:	WinNT
#	Modification time:	15. 06. 2019 20:31

#	Program:	/corina/corina34_cracker 3.40 0067  02.08.2006

@<TRIPOS>MOLECULE
ASD03091595
  16   16    0    0    0
SMALL
NO_CHARGES


@<TRIPOS>ATOM
   1 C1            -0.0179     1.4665     0.0101 C.2     
   2 C2             0.0021    -0.0041     0.0020 C.ar    
   3 C3            -1.1985    -0.7244     0.0096 C.ar    
   4 C4            -1.1702    -2.1047     0.0014 C.ar    
   5 C5             0.0399    -2.7749    -0.0137 C.ar    
   6 C6             1.2309    -2.0693    -0.0213 C.ar    
   7 C7             1.2205    -0.6907    -0.0192 C.ar    
   8 O8             1.0239     2.0871     0.0035 O.2     
   9 N9            -2.4376    -2.8692     0.0094 N.pl3   
  10 O10           -2.4143    -4.0869     0.0023 O.2     
  11 O11           -3.5038    -2.2806     0.0232 O.2     
  12 Cl12          -2.7178     0.1153     0.0298 Cl      
  13 H13           -0.9604     1.9937     0.0174 H       
  14 H14            0.0556    -3.8548    -0.0193 H       
  15 H15            2.1712    -2.6005    -0.0332 H       
  16 H16            2.1508    -0.1423    -0.0293 H       
@<TRIPOS>BOND
   1    1    2 1
   2    1    8 2
   3    1   13 1
   4    2    3 ar
   5    2    7 ar
   6    3    4 ar
   7    3   12 1
   8    4    5 ar
   9    4    9 1
  10    5    6 ar
  11    5   14 1
  12    6    7 ar
  13    6   15 1
  14    7   16 1
  15    9   10 2
  16    9   11 2

#	End of record

