#	Name: ASD02198687
#	Creating user name:	WinNT
#	Creation time:	15. 06. 2019 20:20

#	Modifying user name:	WinNT
#	Modification time:	15. 06. 2019 20:20

#	Program:	/corina/corina34_cracker 3.40 0067  02.08.2006

@<TRIPOS>MOLECULE
ASD02198687
  51   55    0    0    0
SMALL
NO_CHARGES


@<TRIPOS>ATOM
   1 F1             2.2527    -1.7062     2.4727 F       
   2 C2            -0.0436     1.5032    -0.1143 C.2     
   3 C3            -0.0737     0.1637     0.0983 C.2     
   4 N4             1.0707    -0.5383     0.2611 N.pl3   
   5 N5             2.2354    -0.0040     0.2269 N.2     
   6 C6             2.4073     1.2851     0.0281 C.2     
   7 C7             1.2216     2.1368    -0.1601 C.2     
   8 C8             0.9789    -1.9160     0.4781 C.ar    
   9 C9             1.5802    -2.4853     1.5975 C.ar    
  10 C10            1.4896    -3.8460     1.8128 C.ar    
  11 C11            0.7956    -4.6485     0.9085 C.ar    
  12 C12            0.1945    -4.0750    -0.2117 C.ar    
  13 C13            0.2824    -2.7155    -0.4208 C.ar    
  14 C14            3.7645     1.8668    -0.0053 C.2     
  15 N15            4.3064     2.6062    -1.0189 N.pl3   
  16 N16            5.6086     2.9574    -0.6417 N.2     
  17 C17            5.8526     2.4583     0.5438 C.2     
  18 C18            4.7206     1.7712     0.9821 C.2     
  19 C19            3.6732     2.9503    -2.2199 C.ar    
  20 C20            2.9107     2.0086    -2.8986 C.ar    
  21 C21            2.2866     2.3480    -4.0835 C.ar    
  22 C22            2.4186     3.6243    -4.5962 C.ar    
  23 C23            3.1795     4.5695    -3.9222 C.ar    
  24 C24            3.8024     4.2345    -2.7303 C.ar    
  25 O25            1.3250     3.3397    -0.3485 O.2     
  26 C26            0.6971    -6.1102     1.1371 C.ar    
  27 N27            1.2718    -6.6496     2.2048 N.ar    
  28 C28           -0.0029    -6.9055     0.2321 C.ar    
  29 C29           -0.0866    -8.2685     0.4591 C.ar    
  30 C30            0.5333    -8.7918     1.5849 C.ar    
  31 C31            1.2072    -7.9434     2.4442 C.ar    
  32 O32            3.3089     5.8243    -4.4278 O.3     
  33 C33            2.6347     6.1012    -5.6569 C.3     
  34 F34            1.2599     5.9033    -5.4896 F       
  35 F35            2.8727     7.4282    -6.0307 F       
  36 F36            3.1114     5.2432    -6.6538 F       
  37 H37           -0.9548     2.0671    -0.2488 H       
  38 H38           -1.0237    -0.3485     0.1385 H       
  39 H39            1.9561    -4.2882     2.6807 H       
  40 H40           -0.3431    -4.6956    -0.9132 H       
  41 H41           -0.1833    -2.2721    -1.2885 H       
  42 H42            6.7763     2.5645     1.0933 H       
  43 H43            4.6148     1.2523     1.9234 H       
  44 H44            2.8059     1.0104    -2.5000 H       
  45 H45            1.6946     1.6141    -4.6103 H       
  46 H46            1.9296     3.8866    -5.5227 H       
  47 H47            4.3948     4.9687    -2.2045 H       
  48 H48           -0.4739    -6.4647    -0.6340 H       
  49 H49           -0.6226    -8.9101    -0.2245 H       
  50 H50            0.4864    -9.8511     1.7901 H       
  51 H51            1.6910    -8.3477     3.3211 H       
@<TRIPOS>BOND
   1    1    9 1
   2    2    3 2
   3    2    7 1
   4    2   37 1
   5    3    4 1
   6    3   38 1
   7    4    5 1
   8    4    8 1
   9    5    6 2
  10    6    7 1
  11    6   14 1
  12    7   25 2
  13    8    9 ar
  14    8   13 ar
  15    9   10 ar
  16   10   11 ar
  17   10   39 1
  18   11   12 ar
  19   11   26 1
  20   12   13 ar
  21   12   40 1
  22   13   41 1
  23   14   15 1
  24   14   18 2
  25   15   16 1
  26   15   19 1
  27   16   17 2
  28   17   18 1
  29   17   42 1
  30   18   43 1
  31   19   20 ar
  32   19   24 ar
  33   20   21 ar
  34   20   44 1
  35   21   22 ar
  36   21   45 1
  37   22   23 ar
  38   22   46 1
  39   23   24 ar
  40   23   32 1
  41   24   47 1
  42   26   27 ar
  43   26   28 ar
  44   27   31 ar
  45   28   29 ar
  46   28   48 1
  47   29   30 ar
  48   29   49 1
  49   30   31 ar
  50   30   50 1
  51   31   51 1
  52   32   33 1
  53   33   34 1
  54   33   35 1
  55   33   36 1

#	End of record

