#	Name: ASD01918220
#	Creating user name:	WinNT
#	Creation time:	15. 06. 2019 20:11

#	Modifying user name:	WinNT
#	Modification time:	15. 06. 2019 20:11

#	Program:	/corina/corina34_cracker 3.40 0067  02.08.2006

@<TRIPOS>MOLECULE
ASD01918220
  40   43    0    0    0
SMALL
NO_CHARGES


@<TRIPOS>ATOM
   1 C1             0.0525     1.3234    -0.0358 C.ar    
   2 C2             0.1943    -0.0671    -0.2758 C.ar    
   3 C3             1.4733    -0.6580    -0.1388 C.ar    
   4 N4             2.5225     0.0928     0.2121 N.ar    
   5 C5             2.4064     1.3795     0.4377 C.ar    
   6 C6             1.1875     2.0377     0.3245 C.ar    
   7 C7            -1.2614     1.9927    -0.1709 C.ar    
   8 C8            -2.2535     1.7869     0.7882 C.ar    
   9 C9            -3.4755     2.4129     0.6581 C.ar    
  10 C10           -3.7189     3.2449    -0.4233 C.ar    
  11 C11           -2.7365     3.4525    -1.3786 C.ar    
  12 C12           -1.5093     2.8356    -1.2545 C.ar    
  13 C13           -0.9013    -0.8591    -0.6428 C.ar    
  14 C14           -0.7261    -2.1925    -0.8649 C.ar    
  15 C15            0.5292    -2.7795    -0.7319 C.ar    
  16 C16            1.6171    -2.0382    -0.3766 C.ar    
  17 S17            1.0828     3.7685     0.6376 S.o2    
  18 C18            0.0919     3.9787     2.0793 C.ar    
  19 O19            2.3933     4.1933     0.9859 O.2     
  20 O20            0.3455     4.3275    -0.4410 O.2     
  21 C21           -1.2518     4.2777     1.9561 C.ar    
  22 C22            0.6578     3.8389     3.3325 C.ar    
  23 C23           -0.1201     4.0035     4.4662 C.ar    
  24 C24           -1.4648     4.3081     4.3441 C.ar    
  25 C25           -2.0316     4.4426     3.0885 C.ar    
  26 F26           -3.3450     4.7353     2.9678 F       
  27 F27           -4.9178     3.8552    -0.5468 F       
  28 F28            2.8273    -2.6257    -0.2525 F       
  29 F29            0.4333     3.8663     5.6911 F       
  30 H30            3.2831     1.9439     0.7191 H       
  31 H31           -2.0650     1.1382     1.6308 H       
  32 H32           -4.2441     2.2543     1.4000 H       
  33 H33           -2.9310     4.1018    -2.2195 H       
  34 H34           -0.7430     3.0013    -1.9973 H       
  35 H35           -1.8802    -0.4155    -0.7489 H       
  36 H36           -1.5721    -2.8015    -1.1474 H       
  37 H37            0.6432    -3.8380    -0.9131 H       
  38 H38           -1.6938     4.3830     0.9764 H       
  39 H39            1.7069     3.6009     3.4275 H       
  40 H40           -2.0723     4.4362     5.2278 H       
@<TRIPOS>BOND
   1    1    2 ar
   2    1    6 ar
   3    1    7 1
   4    2    3 ar
   5    2   13 ar
   6    3    4 ar
   7    3   16 ar
   8    4    5 ar
   9    5    6 ar
  10    5   30 1
  11    6   17 1
  12    7    8 ar
  13    7   12 ar
  14    8    9 ar
  15    8   31 1
  16    9   10 ar
  17    9   32 1
  18   10   11 ar
  19   10   27 1
  20   11   12 ar
  21   11   33 1
  22   12   34 1
  23   13   14 ar
  24   13   35 1
  25   14   15 ar
  26   14   36 1
  27   15   16 ar
  28   15   37 1
  29   16   28 1
  30   17   18 1
  31   17   19 2
  32   17   20 2
  33   18   22 ar
  34   18   21 ar
  35   21   25 ar
  36   21   38 1
  37   22   23 ar
  38   22   39 1
  39   23   24 ar
  40   23   29 1
  41   24   25 ar
  42   24   40 1
  43   25   26 1

#	End of record

