#	Name: ASD01940484
#	Creating user name:	WinNT
#	Creation time:	15. 06. 2019 20:12

#	Modifying user name:	WinNT
#	Modification time:	15. 06. 2019 20:12

#	Program:	/corina/corina34_cracker 3.40 0067  02.08.2006

@<TRIPOS>MOLECULE
ASD01940484
  41   43    0    0    0
SMALL
NO_CHARGES


@<TRIPOS>ATOM
   1 S1             2.0591     2.3945     2.8779 S.3     
   2 N2             2.5609     0.8660     3.4145 N.2     
   3 C3             3.0925     0.2409     2.4201 C.2     
   4 C4             3.1576     0.8812     1.1718 C.ar    
   5 C5             2.6011     2.1726     1.2115 C.ar    
   6 C6             2.5656     2.9789     0.0764 C.ar    
   7 C7             3.0947     2.4930    -1.1272 C.ar    
   8 C8             3.6507     1.2024    -1.1666 C.ar    
   9 C9             3.6837     0.4205    -0.0622 C.ar    
  10 C10            3.0678     3.3258    -2.3384 C.2     
  11 O11            2.5034     4.4024    -2.3235 O.2     
  12 O12            3.6692     2.8955    -3.4658 O.3     
  13 N13            2.0119     4.2494     0.1363 N.pl3   
  14 C14            0.6749     4.4473    -0.2237 C.ar    
  15 C15            0.0838     5.6951    -0.0515 C.ar    
  16 C16           -1.2378     5.8866    -0.4090 C.ar    
  17 C17           -1.9714     4.8389    -0.9372 C.ar    
  18 C18           -1.3858     3.5979    -1.1088 C.ar    
  19 C19           -0.0637     3.4009    -0.7589 C.ar    
  20 I20           -3.9739     5.1334    -1.4777 I       
  21 F21            0.8001     6.7177     0.4647 F       
  22 C22            3.6028     3.7698    -4.6232 C.3     
  23 C23            4.2642     5.1086    -4.2896 C.3     
  24 C24            4.3352     3.1177    -5.7976 C.3     
  25 C25            2.1391     4.0044    -5.0018 C.3     
  26 H26            3.4818    -0.7587     2.5451 H       
  27 H27            4.0580     0.8281    -2.0942 H       
  28 H28            4.1170    -0.5670    -0.1212 H       
  29 H29            2.5520     5.0006     0.4278 H       
  30 H30           -1.6981     6.8544    -0.2756 H       
  31 H31           -1.9617     2.7824    -1.5207 H       
  32 H32            0.3935     2.4324    -0.8976 H       
  33 H33            5.3070     4.9414    -4.0199 H       
  34 H34            4.2143     5.7649    -5.1585 H       
  35 H35            3.7424     5.5731    -3.4530 H       
  36 H36            3.8640     2.1640    -6.0352 H       
  37 H37            4.2854     3.7740    -6.6664 H       
  38 H38            5.3780     2.9506    -5.5278 H       
  39 H39            1.6173     4.4690    -4.1651 H       
  40 H40            2.0893     4.6607    -5.8707 H       
  41 H41            1.6679     3.0506    -5.2394 H       
@<TRIPOS>BOND
   1    1    2 1
   2    1    5 1
   3    2    3 2
   4    3    4 1
   5    3   26 1
   6    4    5 ar
   7    4    9 ar
   8    5    6 ar
   9    6    7 ar
  10    6   13 1
  11    7    8 ar
  12    7   10 1
  13    8    9 ar
  14    8   27 1
  15    9   28 1
  16   10   11 2
  17   10   12 1
  18   12   22 1
  19   13   14 1
  20   13   29 1
  21   14   15 ar
  22   14   19 ar
  23   15   16 ar
  24   15   21 1
  25   16   17 ar
  26   16   30 1
  27   17   18 ar
  28   17   20 1
  29   18   19 ar
  30   18   31 1
  31   19   32 1
  32   22   23 1
  33   22   25 1
  34   22   24 1
  35   23   33 1
  36   23   34 1
  37   23   35 1
  38   24   36 1
  39   24   37 1
  40   24   38 1
  41   25   39 1
  42   25   40 1
  43   25   41 1

#	End of record

