#	Name: ASD03540108
#	Creating user name:	WinNT
#	Creation time:	15. 06. 2019 20:42

#	Modifying user name:	WinNT
#	Modification time:	15. 06. 2019 20:42

#	Program:	/corina/corina34_cracker 3.40 0067  02.08.2006

@<TRIPOS>MOLECULE
ASD03540108
  54   56    0    0    0
SMALL
NO_CHARGES


@<TRIPOS>ATOM
   1 C1            -0.0179     1.4722     0.0101 C.2     
   2 C2             0.0021    -0.0041     0.0020 C.ar    
   3 C3             1.2180    -0.6841    -0.0132 C.ar    
   4 C4             1.2312    -2.0766    -0.0204 C.ar    
   5 C5             2.5146    -2.8050    -0.0361 C.2     
   6 C6             0.0191    -2.7850    -0.0122 C.ar    
   7 C7            -1.1873    -2.0967     0.0031 C.ar    
   8 C8            -1.2000    -0.7201     0.0155 C.ar    
   9 O9             1.0266     2.0944     0.0035 O.2     
  10 N10           -1.1942     2.1301     0.0193 N.am    
  11 O11            2.5235    -4.0208    -0.0423 O.2     
  12 N12            3.6767    -2.1225    -0.0435 N.am    
  13 C13           -1.2140     3.5950     0.0273 C.3     
  14 C14           -2.6415     4.0779     0.0367 C.ar    
  15 C15           -3.2896     4.2926     1.2391 C.ar    
  16 C16           -4.5981     4.7353     1.2504 C.ar    
  17 C17           -5.2620     4.9645     0.0540 C.ar    
  18 C18           -4.6095     4.7484    -1.1511 C.ar    
  19 C19           -3.2991     4.3110    -1.1570 C.ar    
  20 O20           -6.5494     5.3997     0.0625 O.3     
  21 C21           -7.1700     5.6145    -1.2067 C.3     
  22 O22            0.0261    -4.1398    -0.0195 O.3     
  23 C23           -1.2437    -4.7952    -0.0104 C.3     
  24 C24            4.9508    -2.8455    -0.0590 C.3     
  25 C25            6.0889    -1.8578    -0.0647 C.ar    
  26 C26            6.6221    -1.4108     1.1298 C.ar    
  27 C27            7.6661    -0.5047     1.1246 C.ar    
  28 C28            8.1771    -0.0460    -0.0751 C.ar    
  29 C29            7.6445    -0.4936    -1.2696 C.ar    
  30 C30            6.6034    -1.4030    -1.2644 C.ar    
  31 H31            2.1469    -0.1333    -0.0199 H       
  32 H32           -2.1187    -2.6434     0.0090 H       
  33 H33           -2.1413    -0.1909     0.0315 H       
  34 H34           -2.0275     1.6338     0.0205 H       
  35 H35            3.6696    -1.1525    -0.0385 H       
  36 H36           -0.7010     3.9604     0.9169 H       
  37 H37           -0.7094     3.9701    -0.8630 H       
  38 H38           -2.7725     4.1137     2.1702 H       
  39 H39           -5.1040     4.9025     2.1898 H       
  40 H40           -5.1242     4.9261    -2.0838 H       
  41 H41           -2.7892     4.1472    -2.0948 H       
  42 H42           -6.6101     6.3670    -1.7621 H       
  43 H43           -7.1801     4.6808    -1.7689 H       
  44 H44           -8.1930     5.9597    -1.0572 H       
  45 H45           -1.0953    -5.8750    -0.0177 H       
  46 H46           -1.7933    -4.5100     0.8866 H       
  47 H47           -1.8110    -4.5004    -0.8932 H       
  48 H48            5.0214    -3.4762     0.8271 H       
  49 H49            5.0048    -3.4672    -0.9527 H       
  50 H50            6.2228    -1.7692     2.0671 H       
  51 H51            8.0822    -0.1549     2.0578 H       
  52 H52            8.9923     0.6625    -0.0792 H       
  53 H53            8.0436    -0.1350    -2.2069 H       
  54 H54            6.1898    -1.7556    -2.1977 H       
@<TRIPOS>BOND
   1    1    2 1
   2    1    9 2
   3    1   10 am
   4    2    3 ar
   5    2    8 ar
   6    3    4 ar
   7    3   31 1
   8    4    5 1
   9    4    6 ar
  10    5   11 2
  11    5   12 am
  12    6    7 ar
  13    6   22 1
  14    7    8 ar
  15    7   32 1
  16    8   33 1
  17   10   13 1
  18   10   34 1
  19   12   24 1
  20   12   35 1
  21   13   14 1
  22   13   36 1
  23   13   37 1
  24   14   15 ar
  25   14   19 ar
  26   15   16 ar
  27   15   38 1
  28   16   17 ar
  29   16   39 1
  30   17   18 ar
  31   17   20 1
  32   18   19 ar
  33   18   40 1
  34   19   41 1
  35   20   21 1
  36   21   42 1
  37   21   43 1
  38   21   44 1
  39   22   23 1
  40   23   45 1
  41   23   46 1
  42   23   47 1
  43   24   25 1
  44   24   48 1
  45   24   49 1
  46   25   26 ar
  47   25   30 ar
  48   26   27 ar
  49   26   50 1
  50   27   28 ar
  51   27   51 1
  52   28   29 ar
  53   28   52 1
  54   29   30 ar
  55   29   53 1
  56   30   54 1

#	End of record

