#	Name: ASD04570029
#	Creating user name:	WinNT
#	Creation time:	15. 06. 2019 20:49

#	Modifying user name:	WinNT
#	Modification time:	15. 06. 2019 20:49

#	Program:	/corina/corina34_cracker 3.40 0067  02.08.2006

@<TRIPOS>MOLECULE
ASD04570029
 332  332    0    0    0
SMALL
NO_CHARGES


@<TRIPOS>ATOM
   1 C1            -0.0187     1.5258     0.0104 C.3     
   2 C2             0.0021    -0.0041     0.0020 C.3     
   3 C3             0.7421    -0.5109     1.2415 C.3     
   4 C4             0.7628    -2.0407     1.2331 C.3     
   5 C5             1.5028    -2.5476     2.4727 C.3     
   6 C6             1.5236    -4.0774     2.4642 C.3     
   7 C7             2.2636    -4.5842     3.7038 C.3     
   8 C8             2.2843    -6.1141     3.6954 C.3     
   9 C9             3.0243    -6.6209     4.9349 C.3     
  10 C10            3.0450    -8.1508     4.9265 C.3     
  11 C11            3.7850    -8.6576     6.1660 C.3     
  12 C12            3.8058   -10.1874     6.1576 C.3     
  13 C13            4.5458   -10.6943     7.3971 C.3     
  14 C14            4.5665   -12.2241     7.3887 C.3     
  15 C15            5.3065   -12.7309     8.6282 C.3     
  16 C16            5.3270   -14.2378     8.6199 C.2     
  17 N17            5.9293   -14.9091     9.6215 N.am    
  18 O18            4.8014   -14.8464     7.7120 O.2     
  19 C19            5.9491   -16.3739     9.6134 C.3     
  20 H20            6.3496   -14.4223    10.3476 H       
  21 C21            7.1274   -16.8647    10.4145 C.2     
  22 C22            4.6547   -16.9049    10.2326 C.3     
  23 C23            3.4684   -16.5114     9.3502 C.3     
  24 S24            1.9337   -17.1409    10.0843 S.3     
  25 C25            0.6635   -16.5834     8.9153 C.3     
  26 N26            7.3484   -18.1877    10.5466 N.am    
  27 O27            7.8768   -16.0692    10.9404 O.2     
  28 C28            8.4939   -18.6648    11.3253 C.3     
  29 C29            8.5143   -20.1716    11.3171 C.2     
  30 N30            9.4859   -20.8360    11.9737 N.am    
  31 O31            7.6566   -20.7865    10.7195 O.2     
  32 C32            9.5057   -22.3009    11.9657 C.3     
  33 C33           10.9139   -22.7854    12.1964 C.2     
  34 O34           11.8125   -21.9859    12.3522 O.2     
  35 N35           11.1748   -24.1073    12.2295 N.am    
  36 C36            8.5961   -22.8294    13.0766 C.3     
  37 C37            7.1684   -22.4484    12.7807 C.ar    
  38 C38            6.3675   -23.2964    12.0383 C.ar    
  39 C39            5.0584   -22.9495    11.7657 C.ar    
  40 C40            4.5475   -21.7490    12.2374 C.ar    
  41 C41            5.3532   -20.8999    12.9821 C.ar    
  42 C42            6.6599   -21.2540    13.2568 C.ar    
  43 O43            3.2602   -21.4052    11.9702 O.3     
  44 C44           12.5438   -24.5783    12.4538 C.3     
  45 C45           12.8241   -24.6343    13.9569 C.3     
  46 C46           12.7049   -25.9545    11.8612 C.2     
  47 O47           11.7684   -26.4892    11.3062 O.2     
  48 N48           13.8896   -26.5911    11.9480 N.am    
  49 C49           12.7830   -23.2188    14.5363 C.3     
  50 C50           13.0591   -23.2739    16.0168 C.2     
  51 O51           13.2681   -24.3403    16.5554 O.2     
  52 N52           13.0737   -22.1382    16.7423 N.am    
  53 C53           14.0463   -27.9290    11.3719 C.3     
  54 C54           14.3867   -27.8074     9.8852 C.3     
  55 C55           15.1580   -28.6556    12.0841 C.2     
  56 C56           13.2053   -27.1820     9.1410 C.3     
  57 C57           13.5457   -27.0605     7.6543 C.3     
  58 C58           12.3643   -26.4350     6.9100 C.3     
  59 N59           12.6911   -26.3183     5.4826 N.3     
  60 O60           15.7602   -28.1096    12.9842 O.2     
  61 N61           15.4830   -29.9121    11.7207 N.am    
  62 C62           16.5638   -30.6184    12.4130 C.3     
  63 C63           16.3457   -32.1280    12.2926 C.3     
  64 C64           17.9053   -30.2448    11.7792 C.3     
  65 C65           15.0661   -32.5191    13.0345 C.3     
  66 C66           14.8479   -34.0287    12.9141 C.3     
  67 C67           13.5683   -34.4199    13.6561 C.3     
  68 N68           13.3589   -35.8693    13.5405 N.3     
  69 H69            1.0039     1.9031     0.0027 H       
  70 H70           -0.5459     1.8868    -0.8726 H       
  71 H71           -0.5289     1.8773     0.9072 H       
  72 H72           -1.0205    -0.3814     0.0098 H       
  73 H73            0.5123    -0.3556    -0.8948 H       
  74 H74            1.7647    -0.1336     1.2338 H       
  75 H75            0.2319    -0.1594     2.1383 H       
  76 H76           -0.2598    -2.4180     1.2409 H       
  77 H77            1.2730    -2.3923     0.3363 H       
  78 H78            2.5254    -2.1703     2.4649 H       
  79 H79            0.9926    -2.1961     3.3695 H       
  80 H80            0.5010    -4.4547     2.4720 H       
  81 H81            2.0337    -4.4289     1.5675 H       
  82 H82            3.2861    -4.2070     3.6960 H       
  83 H83            1.7534    -4.2327     4.6006 H       
  84 H84            1.2617    -6.4914     3.7031 H       
  85 H85            2.7945    -6.4656     2.7986 H       
  86 H86            4.0469    -6.2436     4.9271 H       
  87 H87            2.5141    -6.2694     5.8317 H       
  88 H88            2.0224    -8.5280     4.9342 H       
  89 H89            3.5552    -8.5023     4.0297 H       
  90 H90            4.8076    -8.2803     6.1583 H       
  91 H91            3.2748    -8.3061     7.0628 H       
  92 H92            2.7832   -10.5647     6.1653 H       
  93 H93            4.3160   -10.5389     5.2608 H       
  94 H94            5.5684   -10.3170     7.3894 H       
  95 H95            4.0356   -10.3427     8.2939 H       
  96 H96            3.5439   -12.6014     7.3964 H       
  97 H97            5.0767   -12.5756     6.4919 H       
  98 H98            6.3291   -12.3537     8.6205 H       
  99 H99            4.7963   -12.3794     9.5250 H       
 100 H100           6.0338   -16.7305     8.5869 H       
 101 H101           4.7069   -17.9911    10.3080 H       
 102 H102           4.5255   -16.4775    11.2269 H       
 103 H103           3.4162   -15.4252     9.2748 H       
 104 H104           3.5975   -16.9388     8.3559 H       
 105 H105          -0.3171   -16.9107     9.2609 H       
 106 H106           0.6815   -15.4955     8.8508 H       
 107 H107           0.8628   -17.0091     7.9319 H       
 108 H108           6.7491   -18.8239    10.1260 H       
 109 H109           9.4161   -18.2865    10.8842 H       
 110 H110           8.4092   -18.3082    12.3519 H       
 111 H111          10.1719   -20.3443    12.4517 H       
 112 H112           9.1500   -22.6638    11.0014 H       
 113 H113          10.4562   -24.7467    12.1049 H       
 114 H114           8.6791   -23.9150    13.1286 H       
 115 H115           8.8976   -22.3959    14.0301 H       
 116 H116           6.7658   -24.2307    11.6710 H       
 117 H117           4.4333   -23.6120    11.1854 H       
 118 H118           4.9578   -19.9648    13.3505 H       
 119 H119           7.2874   -20.5935    13.8368 H       
 120 H120           2.6261   -21.7084    12.6344 H       
 121 H121          13.2461   -23.8936    11.9785 H       
 122 H122          12.0676   -25.2488    14.4449 H       
 123 H123          13.8095   -25.0680    14.1268 H       
 124 H124          14.6386   -26.1635    12.3919 H       
 125 H125          13.5395   -22.6044    14.0483 H       
 126 H126          11.7976   -22.7851    14.3664 H       
 127 H127          12.9066   -21.2853    16.3115 H       
 128 H128          13.2515   -22.1737    17.6952 H       
 129 H129          13.1161   -28.4854    11.4873 H       
 130 H130          15.2673   -27.1764     9.7646 H       
 131 H131          14.5904   -28.7974     9.4770 H       
 132 H132          12.3247   -27.8130     9.2616 H       
 133 H133          13.0016   -26.1921     9.5492 H       
 134 H134          14.4263   -26.4295     7.5336 H       
 135 H135          13.7494   -28.0504     7.2461 H       
 136 H136          11.4837   -27.0660     7.0307 H       
 137 H137          12.1606   -25.4451     7.3182 H       
 138 H138          11.9260   -25.9077     4.9688 H       
 139 H139          13.5411   -25.7914     5.3482 H       
 140 H140          15.0014   -30.3487    11.0008 H       
 141 H141          16.5676   -30.3346    13.4654 H       
 142 H142          16.2531   -32.3989    11.2409 H       
 143 H143          17.1944   -32.6537    12.7299 H       
 144 H144          18.0607   -29.1693    11.8650 H       
 145 H145          18.7094   -30.7703    12.2943 H       
 146 H146          17.9015   -30.5285    10.7268 H       
 147 H147          15.1586   -32.2482    14.0862 H       
 148 H148          14.2173   -31.9934    12.5972 H       
 149 H149          14.7554   -34.2997    11.8624 H       
 150 H150          15.6967   -34.5545    13.3515 H       
 151 H151          13.6609   -34.1489    14.7078 H       
 152 H152          12.7196   -33.8941    13.2187 H       
 153 H153          14.1607   -36.3788    13.8804 H       
 154 H154          12.5192   -36.1529    14.0227 H       
 155 C155          27.6297     9.1906    33.3725 C.3     
 156 N156          27.2600     9.9081    32.1451 N.3     
 157 C157          27.8438     9.2625    30.9618 C.3     
 158 C158          29.2300     9.8047    30.7263 C.2     
 159 N159          30.1447     9.0573    30.0773 N.am    
 160 C160          31.4923     9.5845    29.8484 C.3     
 161 C161          32.1442     9.8892    31.1725 C.2     
 162 N162          33.4853     9.9948    31.2549 N.am    
 163 C163          34.1190    10.2910    32.5421 C.3     
 164 C164          35.4551    10.9466    32.3051 C.2     
 165 N165          36.2222    11.3105    33.3518 N.am    
 166 O166          35.8400    11.1467    31.1726 O.2     
 167 C167          37.5210    11.9479    33.1215 C.3     
 168 C168          38.1729    12.2525    34.4456 C.2     
 169 N169          39.3835    12.8440    34.4804 N.am    
 170 O170          37.6082    11.9656    35.4798 O.2     
 171 C171          40.0172    13.1401    35.7676 C.3     
 172 C172          40.9848    14.2833    35.5999 C.2     
 173 N173          41.4457    14.9403    36.6827 N.am    
 174 O174          41.3487    14.6120    34.4907 O.2     
 175 C175          42.4463    15.9989    36.5261 C.3     
 176 C176          43.5616    15.7865    37.5170 C.2     
 177 O177          43.5245    14.8436    38.2790 O.2     
 178 N178          44.6005    16.6442    37.5564 N.am    
 179 C179          45.6848    16.4377    38.5197 C.3     
 180 C180          45.3028    17.0682    39.8604 C.3     
 181 C181          46.9454    17.0816    38.0028 C.2     
 182 O182          46.9388    17.6564    36.9349 O.2     
 183 N183          48.0802    17.0187    38.7272 N.am    
 184 C184          49.3057    17.6447    38.2246 C.3     
 185 C185          50.0253    16.6751    37.2850 C.3     
 186 C186          50.2078    17.9842    39.3831 C.2     
 187 O187          49.8611    17.7285    40.5168 O.2     
 188 N188          51.3997    18.5721    39.1592 N.am    
 189 C189          52.2767    18.9022    40.2853 C.3     
 190 C190          53.1155    17.6771    40.6547 C.3     
 191 C191          53.1890    20.0367    39.8958 C.2     
 192 O192          53.1140    20.5217    38.7868 O.2     
 193 N193          54.0882    20.5123    40.7800 N.am    
 194 C194          52.1972    16.5665    41.1688 C.3     
 195 C195          53.0360    15.3414    41.5382 C.3     
 196 N196          52.1568    14.2779    42.0304 N.pl3   
 197 C197          52.6892    13.0733    42.4248 C.2     
 198 C198          40.7699    11.9033    36.2621 C.3     
 199 C199          41.3582    12.1838    37.6464 C.3     
 200 O200          41.8252    11.5917    35.3503 O.3     
 201 C201          41.7930    17.3594    36.7775 C.3     
 202 C202          40.7580    17.6238    35.7145 C.2     
 203 O203          40.0695    18.7760    35.7200 O.3     
 204 O204          40.5481    16.7987    34.8572 O.2     
 205 C205          44.0961    16.3314    40.4452 C.3     
 206 C206          43.7142    16.9619    41.7859 C.3     
 207 C207          42.5075    16.2251    42.3706 C.3     
 208 N208          42.1408    16.8305    43.6579 N.3     
 209 C209          49.1733    16.4313    36.0661 C.ar    
 210 C210          49.3083    17.2444    34.9559 C.ar    
 211 C211          48.2620    15.3915    36.0577 C.ar    
 212 C212          47.4802    15.1658    34.9414 C.ar    
 213 C213          47.6100    15.9834    33.8281 C.ar    
 214 C214          48.5285    17.0230    33.8373 C.ar    
 215 N215          51.8640    12.0753    42.8868 N.pl3   
 216 N216          53.9762    12.8774    42.3608 N.2     
 217 C217          34.3203     8.9905    33.3226 C.3     
 218 O218          35.2490     8.1564    32.6271 O.3     
 219 O219          31.4620    10.0393    32.1639 O.2     
 220 C220          31.4042    10.8655    29.0165 C.3     
 221 C221          30.8575    10.5344    27.6264 C.3     
 222 C222          30.7695    11.8154    26.7945 C.3     
 223 N223          30.2461    11.4984    25.4635 N.pl3   
 224 C224          30.0782    12.4981    24.5347 C.2     
 225 N225          30.4015    13.7954    24.8551 N.pl3   
 226 N226          29.6125    12.2160    23.3505 N.2     
 227 O227          29.5224    10.9137    31.1207 O.2     
 228 C228          26.9691     9.5505    29.7400 C.3     
 229 C229          25.6004     8.8926    29.9261 C.3     
 230 C230          24.6845     9.2832    28.7645 C.3     
 231 C231          25.7654     7.3718    29.9563 C.3     
 232 C232          54.9750    21.6152    40.4014 C.3     
 233 C233          54.2708    22.9276    40.6310 C.2     
 234 C234          56.2459    21.5627    41.2517 C.3     
 235 C235          57.0250    20.2868    40.9262 C.3     
 236 N236          54.8982    24.0870    40.3508 N.am    
 237 O237          53.1395    22.9404    41.0679 O.2     
 238 C238          57.5102    20.3414    39.4762 C.3     
 239 C239          58.2292    20.1715    41.8630 C.3     
 240 O240          46.8423    15.7631    32.7286 O.3     
 241 H241          27.1905     8.1931    33.3566 H       
 242 H242          28.7150     9.1088    33.4326 H       
 243 H243          27.2581     9.7375    34.2391 H       
 244 H244          26.2575     9.9834    32.0584 H       
 245 H245          27.8975     8.1860    31.1245 H       
 246 H246          29.9108     8.1704    29.7619 H       
 247 H247          32.0861     8.8437    29.3129 H       
 248 H248          34.0309     9.8747    30.4619 H       
 249 H249          33.4807    10.9636    33.1150 H       
 250 H250          35.9143    11.1505    34.2576 H       
 251 H251          38.1593    11.2753    32.5485 H       
 252 H252          37.3776    12.8743    32.5654 H       
 253 H253          39.8352    13.0735    33.6533 H       
 254 H254          39.2527    13.4149    36.4943 H       
 255 H255          41.1150    14.7123    37.5656 H       
 256 H256          42.8494    15.9710    35.5138 H       
 257 H257          44.6302    17.3983    36.9470 H       
 258 H258          45.8518    15.3691    38.6552 H       
 259 H259          46.1436    16.9929    40.5500 H       
 260 H260          45.0496    18.1176    39.7095 H       
 261 H261          48.0855    16.5590    39.5813 H       
 262 H262          49.0523    18.5556    37.6823 H       
 263 H263          50.9798    17.1047    36.9811 H       
 264 H264          50.1996    15.7310    37.8011 H       
 265 H265          51.6770    18.7766    38.2524 H       
 266 H266          51.6718    19.2000    41.1418 H       
 267 H267          53.6528    17.3256    39.7739 H       
 268 H268          53.8299    17.9469    41.4325 H       
 269 H269          54.1481    20.1244    41.6670 H       
 270 H270          51.6599    16.9179    42.0496 H       
 271 H271          51.4828    16.2966    40.3910 H       
 272 H272          53.5733    14.9899    40.6574 H       
 273 H273          53.7504    15.6112    42.3159 H       
 274 H274          51.1990    14.4237    42.0780 H       
 275 H275          40.0821    11.0599    36.3237 H       
 276 H276          40.5555    12.4441    38.3363 H       
 277 H277          41.8746    11.2949    38.0086 H       
 278 H278          42.0635    13.0122    37.5803 H       
 279 H279          42.3459    10.8166    35.6015 H       
 280 H280          41.3152    17.3575    37.7573 H       
 281 H281          42.5538    18.1392    36.7459 H       
 282 H282          39.4162    18.9004    35.0180 H       
 283 H283          43.2553    16.4067    39.7556 H       
 284 H284          44.3493    15.2820    40.5962 H       
 285 H285          44.5550    16.8866    42.4754 H       
 286 H286          43.4610    18.0113    41.6349 H       
 287 H287          41.6667    16.3004    41.6811 H       
 288 H288          42.7607    15.1757    42.5216 H       
 289 H289          41.3457    16.3611    44.0647 H       
 290 H290          42.9245    16.8312    44.2934 H       
 291 H291          50.0238    18.0534    34.9634 H       
 292 H292          48.1616    14.7551    36.9244 H       
 293 H293          46.7688    14.3532    34.9351 H       
 294 H294          48.6315    17.6609    32.9719 H       
 295 H295          50.9062    12.2211    42.9344 H       
 296 H296          52.2397    11.2254    43.1651 H       
 297 H297          54.3518    12.0274    42.6391 H       
 298 H298          34.7095     9.2189    34.3149 H       
 299 H299          33.3662     8.4720    33.4170 H       
 300 H300          35.4249     7.3127    33.0657 H       
 301 H301          30.7384    11.5739    29.5095 H       
 302 H302          32.3968    11.3058    28.9212 H       
 303 H303          31.5234     9.8261    27.1334 H       
 304 H304          29.8650    10.0941    27.7217 H       
 305 H305          30.1037    12.5238    27.2875 H       
 306 H306          31.7621    12.2557    26.6992 H       
 307 H307          30.0179    10.5831    25.2374 H       
 308 H308          30.7481    14.0053    25.7364 H       
 309 H309          30.2831    14.5007    24.1998 H       
 310 H310          29.4940    12.9213    22.6952 H       
 311 H311          26.8425    10.6275    29.6295 H       
 312 H312          27.4476     9.1475    28.8474 H       
 313 H313          25.1602     9.2290    30.8648 H       
 314 H314          25.1247     8.9468    27.8258 H       
 315 H315          23.7094     8.8145    28.8971 H       
 316 H316          24.5669    10.3666    28.7429 H       
 317 H317          24.7903     6.9031    30.0889 H       
 318 H318          26.2056     7.0354    29.0176 H       
 319 H319          26.4179     7.0935    30.7839 H       
 320 H320          55.2389    21.5239    39.3477 H       
 321 H321          56.8654    22.4324    41.0332 H       
 322 H322          55.9766    21.5645    42.3079 H       
 323 H323          56.3764    19.4210    41.0600 H       
 324 H324          55.8030    24.0768    40.0014 H       
 325 H325          54.4449    24.9318    40.4987 H       
 326 H326          58.1587    21.2072    39.3425 H       
 327 H327          58.0652    19.4324    39.2443 H       
 328 H328          56.6523    20.4235    38.8089 H       
 329 H329          57.8835    20.1326    42.8960 H       
 330 H330          58.7842    19.2626    41.6311 H       
 331 H331          58.8777    21.0374    41.7292 H       
 332 H332          46.0007    16.2392    32.7347 H       
@<TRIPOS>BOND
   1    1    2 1
   2    1   69 1
   3    1   70 1
   4    1   71 1
   5    2    3 1
   6    2   72 1
   7    2   73 1
   8    3    4 1
   9    3   74 1
  10    3   75 1
  11    4    5 1
  12    4   76 1
  13    4   77 1
  14    5    6 1
  15    5   78 1
  16    5   79 1
  17    6    7 1
  18    6   80 1
  19    6   81 1
  20    7    8 1
  21    7   82 1
  22    7   83 1
  23    8    9 1
  24    8   84 1
  25    8   85 1
  26    9   10 1
  27    9   86 1
  28    9   87 1
  29   10   11 1
  30   10   88 1
  31   10   89 1
  32   11   12 1
  33   11   90 1
  34   11   91 1
  35   12   13 1
  36   12   92 1
  37   12   93 1
  38   13   14 1
  39   13   94 1
  40   13   95 1
  41   14   15 1
  42   14   96 1
  43   14   97 1
  44   15   16 1
  45   15   98 1
  46   15   99 1
  47   16   17 am
  48   16   18 2
  49   17   19 1
  50   17   20 1
  51   19   21 1
  52   19   22 1
  53   19  100 1
  54   21   26 am
  55   21   27 2
  56   22   23 1
  57   22  101 1
  58   22  102 1
  59   23   24 1
  60   23  103 1
  61   23  104 1
  62   24   25 1
  63   25  105 1
  64   25  106 1
  65   25  107 1
  66   26   28 1
  67   26  108 1
  68   28   29 1
  69   28  109 1
  70   28  110 1
  71   29   30 am
  72   29   31 2
  73   30   32 1
  74   30  111 1
  75   32   33 1
  76   32   36 1
  77   32  112 1
  78   33   34 2
  79   33   35 am
  80   35   44 1
  81   35  113 1
  82   36   37 1
  83   36  114 1
  84   36  115 1
  85   37   38 ar
  86   37   42 ar
  87   38   39 ar
  88   38  116 1
  89   39   40 ar
  90   39  117 1
  91   40   41 ar
  92   40   43 1
  93   41   42 ar
  94   41  118 1
  95   42  119 1
  96   43  120 1
  97   44   45 1
  98   44   46 1
  99   44  121 1
 100   45   49 1
 101   45  122 1
 102   45  123 1
 103   46   47 2
 104   46   48 am
 105   48   53 1
 106   48  124 1
 107   49   50 1
 108   49  125 1
 109   49  126 1
 110   50   51 2
 111   50   52 am
 112   52  127 1
 113   52  128 1
 114   53   54 1
 115   53   55 1
 116   53  129 1
 117   54   56 1
 118   54  130 1
 119   54  131 1
 120   55   60 2
 121   55   61 am
 122   56   57 1
 123   56  132 1
 124   56  133 1
 125   57   58 1
 126   57  134 1
 127   57  135 1
 128   58   59 1
 129   58  136 1
 130   58  137 1
 131   59  138 1
 132   59  139 1
 133   61   62 1
 134   61  140 1
 135   62   63 1
 136   62   64 1
 137   62  141 1
 138   63   65 1
 139   63  142 1
 140   63  143 1
 141   64  144 1
 142   64  145 1
 143   64  146 1
 144   65   66 1
 145   65  147 1
 146   65  148 1
 147   66   67 1
 148   66  149 1
 149   66  150 1
 150   67   68 1
 151   67  151 1
 152   67  152 1
 153   68  153 1
 154   68  154 1
 155  155  156 1
 156  155  241 1
 157  155  242 1
 158  155  243 1
 159  156  157 1
 160  156  244 1
 161  157  158 1
 162  157  228 1
 163  157  245 1
 164  158  159 am
 165  158  227 2
 166  159  160 1
 167  159  246 1
 168  160  161 1
 169  160  220 1
 170  160  247 1
 171  161  162 am
 172  161  219 2
 173  162  163 1
 174  162  248 1
 175  163  164 1
 176  163  217 1
 177  163  249 1
 178  164  165 am
 179  164  166 2
 180  165  167 1
 181  165  250 1
 182  167  168 1
 183  167  251 1
 184  167  252 1
 185  168  169 am
 186  168  170 2
 187  169  171 1
 188  169  253 1
 189  171  172 1
 190  171  198 1
 191  171  254 1
 192  172  173 am
 193  172  174 2
 194  173  175 1
 195  173  255 1
 196  175  176 1
 197  175  201 1
 198  175  256 1
 199  176  177 2
 200  176  178 am
 201  178  179 1
 202  178  257 1
 203  179  180 1
 204  179  181 1
 205  179  258 1
 206  180  205 1
 207  180  259 1
 208  180  260 1
 209  181  182 2
 210  181  183 am
 211  183  184 1
 212  183  261 1
 213  184  185 1
 214  184  186 1
 215  184  262 1
 216  185  209 1
 217  185  263 1
 218  185  264 1
 219  186  187 2
 220  186  188 am
 221  188  189 1
 222  188  265 1
 223  189  190 1
 224  189  191 1
 225  189  266 1
 226  190  194 1
 227  190  267 1
 228  190  268 1
 229  191  192 2
 230  191  193 am
 231  193  232 1
 232  193  269 1
 233  194  195 1
 234  194  270 1
 235  194  271 1
 236  195  196 1
 237  195  272 1
 238  195  273 1
 239  196  197 1
 240  196  274 1
 241  197  215 1
 242  197  216 2
 243  198  199 1
 244  198  200 1
 245  198  275 1
 246  199  276 1
 247  199  277 1
 248  199  278 1
 249  200  279 1
 250  201  202 1
 251  201  280 1
 252  201  281 1
 253  202  203 1
 254  202  204 2
 255  203  282 1
 256  205  206 1
 257  205  283 1
 258  205  284 1
 259  206  207 1
 260  206  285 1
 261  206  286 1
 262  207  208 1
 263  207  287 1
 264  207  288 1
 265  208  289 1
 266  208  290 1
 267  209  210 ar
 268  209  211 ar
 269  210  214 ar
 270  210  291 1
 271  211  212 ar
 272  211  292 1
 273  212  213 ar
 274  212  293 1
 275  213  214 ar
 276  213  240 1
 277  214  294 1
 278  215  295 1
 279  215  296 1
 280  216  297 1
 281  217  218 1
 282  217  298 1
 283  217  299 1
 284  218  300 1
 285  220  221 1
 286  220  301 1
 287  220  302 1
 288  221  222 1
 289  221  303 1
 290  221  304 1
 291  222  223 1
 292  222  305 1
 293  222  306 1
 294  223  224 1
 295  223  307 1
 296  224  225 1
 297  224  226 2
 298  225  308 1
 299  225  309 1
 300  226  310 1
 301  228  229 1
 302  228  311 1
 303  228  312 1
 304  229  230 1
 305  229  231 1
 306  229  313 1
 307  230  314 1
 308  230  315 1
 309  230  316 1
 310  231  317 1
 311  231  318 1
 312  231  319 1
 313  232  233 1
 314  232  234 1
 315  232  320 1
 316  233  236 am
 317  233  237 2
 318  234  235 1
 319  234  321 1
 320  234  322 1
 321  235  238 1
 322  235  239 1
 323  235  323 1
 324  236  324 1
 325  236  325 1
 326  238  326 1
 327  238  327 1
 328  238  328 1
 329  239  329 1
 330  239  330 1
 331  239  331 1
 332  240  332 1

#	End of record

