#	Name: ASD03430724
#	Creating user name:	WinNT
#	Creation time:	15. 06. 2019 20:41

#	Modifying user name:	WinNT
#	Modification time:	15. 06. 2019 20:41

#	Program:	/corina/corina34_cracker 3.40 0067  02.08.2006

@<TRIPOS>MOLECULE
ASD03430724
  58   64    0    0    0
SMALL
NO_CHARGES


@<TRIPOS>ATOM
   1 C1             2.6864     0.3732     0.0155 C.ar    
   2 C2             2.1126    -0.8880    -0.0268 C.ar    
   3 C3             2.8967    -2.0004    -0.2486 C.ar    
   4 C4             4.2716    -1.8744    -0.4233 C.ar    
   5 C5             4.8434    -0.6068    -0.3851 C.ar    
   6 C6             4.0576     0.5121    -0.1655 C.ar    
   7 O7             4.8609    -3.0915    -0.5995 O.3     
   8 C8             2.5816    -3.4672    -0.3692 C.3     
   9 C9             3.8601    -4.0532    -0.9843 C.3     
  10 C10            0.9894    -4.6463     0.8122 C.ar    
  11 C11            2.2600    -4.0939     0.9550 C.ar    
  12 C12            1.3803    -3.7234    -1.2332 C.2     
  13 N13            0.5034    -4.4134    -0.4770 N.am    
  14 O14            1.2285    -3.3766    -2.3855 O.2     
  15 C15            2.9389    -4.1971     2.1480 C.ar    
  16 C16            2.3611    -4.8563     3.2199 C.ar    
  17 C17            1.1002    -5.4100     3.0885 C.ar    
  18 C18            0.4157    -5.3076     1.8949 C.ar    
  19 C19           -0.8067    -4.8660    -0.9514 C.3     
  20 O20            4.6430     1.7408    -0.1248 O.3     
  21 O21            1.8965     1.4617     0.2285 O.3     
  22 C22            2.5568     2.6660     0.6332 C.3     
  23 C23            3.7777     2.8716    -0.2728 C.3     
  24 Br24           3.2934    -4.9996     4.8589 Br      
  25 C25           -1.8910    -4.1976    -0.1461 C.ar    
  26 C26           -3.0332    -4.8991     0.1916 C.ar    
  27 C27           -4.0279    -4.2860     0.9303 C.ar    
  28 C28           -3.8800    -2.9715     1.3318 C.ar    
  29 C29           -2.7374    -2.2703     0.9949 C.ar    
  30 C30           -1.7408    -2.8848     0.2599 C.ar    
  31 C31           -0.9664    -4.5052    -2.4059 C.ar    
  32 C32           -0.9269    -5.4935    -3.3715 C.ar    
  33 C33           -1.0733    -5.1625    -4.7057 C.ar    
  34 C34           -1.2598    -3.8433    -5.0741 C.ar    
  35 C35           -1.3002    -2.8551    -4.1083 C.ar    
  36 C36           -1.1581    -3.1866    -2.7738 C.ar    
  37 H37            1.0478    -0.9998     0.1149 H       
  38 H38            5.9082    -0.4945    -0.5271 H       
  39 H39            3.7761    -4.1112    -2.0696 H       
  40 H40            4.0805    -5.0324    -0.5593 H       
  41 H41            3.9232    -3.7639     2.2479 H       
  42 H42            0.6497    -5.9251     3.9240 H       
  43 H43           -0.5683    -5.7424     1.8000 H       
  44 H44           -0.8816    -5.9472    -0.8350 H       
  45 H45            1.8761     3.5111     0.5297 H       
  46 H46            2.8792     2.5778     1.6707 H       
  47 H47            4.3048     3.7793     0.0211 H       
  48 H48            3.4556     2.9528    -1.3109 H       
  49 H49           -3.1487    -5.9261    -0.1221 H       
  50 H50           -4.9206    -4.8339     1.1935 H       
  51 H51           -4.6574    -2.4923     1.9083 H       
  52 H52           -2.6220    -1.2432     1.3083 H       
  53 H53           -0.8464    -2.3381    -0.0001 H       
  54 H54           -0.7812    -6.5242    -3.0837 H       
  55 H55           -1.0418    -5.9346    -5.4602 H       
  56 H56           -1.3735    -3.5846    -6.1165 H       
  57 H57           -1.4455    -1.8243    -4.3962 H       
  58 H58           -1.1934    -2.4150    -2.0190 H       
@<TRIPOS>BOND
   1    1    2 ar
   2    1    6 ar
   3    1   21 1
   4    2    3 ar
   5    2   37 1
   6    3    4 ar
   7    3    8 1
   8    4    5 ar
   9    4    7 1
  10    5    6 ar
  11    5   38 1
  12    6   20 1
  13    7    9 1
  14    8    9 1
  15    8   11 1
  16    8   12 1
  17    9   39 1
  18    9   40 1
  19   10   11 ar
  20   10   13 1
  21   10   18 ar
  22   11   15 ar
  23   12   13 am
  24   12   14 2
  25   13   19 1
  26   15   16 ar
  27   15   41 1
  28   16   17 ar
  29   16   24 1
  30   17   18 ar
  31   17   42 1
  32   18   43 1
  33   19   25 1
  34   19   31 1
  35   19   44 1
  36   20   23 1
  37   21   22 1
  38   22   23 1
  39   22   45 1
  40   22   46 1
  41   23   47 1
  42   23   48 1
  43   25   26 ar
  44   25   30 ar
  45   26   27 ar
  46   26   49 1
  47   27   28 ar
  48   27   50 1
  49   28   29 ar
  50   28   51 1
  51   29   30 ar
  52   29   52 1
  53   30   53 1
  54   31   32 ar
  55   31   36 ar
  56   32   33 ar
  57   32   54 1
  58   33   34 ar
  59   33   55 1
  60   34   35 ar
  61   34   56 1
  62   35   36 ar
  63   35   57 1
  64   36   58 1

#	End of record

