#	Name: ASD01150602
#	Creating user name:	WinNT
#	Creation time:	15. 06. 2019 19:04

#	Modifying user name:	WinNT
#	Modification time:	15. 06. 2019 19:04

#	Program:	/corina/corina34_cracker 3.40 0067  02.08.2006

@<TRIPOS>MOLECULE
ASD01150602
  45   47    0    0    0
SMALL
NO_CHARGES


@<TRIPOS>ATOM
   1 C1             0.4933     1.3919    -0.9465 C.ar    
   2 C2             0.4639     0.0109    -0.9224 C.ar    
   3 C3             1.9479     0.0102     0.9677 C.ar    
   4 C4             1.9789     1.3967     0.9445 C.ar    
   5 C5             1.2508     2.0887    -0.0133 C.ar    
   6 N6             1.2801     3.4880    -0.0393 N.am    
   7 C7             0.1263     4.1736    -0.1218 C.2     
   8 N8             0.1176     5.5193    -0.1491 N.am    
   9 C9             1.2789     6.2039    -0.0932 C.2     
  10 C10            2.5442     5.4601    -0.0029 C.2     
  11 N11            2.5098     4.1538     0.0268 N.2     
  12 O12            1.2792     7.4207    -0.1178 O.2     
  13 C13           -1.1539     6.2413    -0.2399 C.3     
  14 O14           -0.9269     3.5676    -0.1732 O.2     
  15 C15           -1.6752     6.5169     1.1470 C.ar    
  16 O16            3.7300     6.1204     0.0549 O.3     
  17 C17            4.9129     5.3233     0.1414 C.3     
  18 C18            1.1883    -0.6824     0.0308 C.ar    
  19 C19           -1.5914     7.7909     1.6757 C.ar    
  20 C20           -2.0688     8.0451     2.9479 C.ar    
  21 C21           -2.6314     7.0233     3.6937 C.ar    
  22 C22           -2.7163     5.7467     3.1648 C.ar    
  23 C23           -2.2432     5.4946     1.8889 C.ar    
  24 N24            2.6816    -0.6914     1.9324 N.am    
  25 C25            2.9446    -0.1216     3.1251 C.2     
  26 O26            2.6215     1.0290     3.3319 O.2     
  27 C27            3.6402    -0.9140     4.2018 C.3     
  28 F28            1.1575    -2.0329     0.0519 F       
  29 F29           -3.0971     7.2719     4.9373 F       
  30 F30           -2.3258     4.2495     1.3713 F       
  31 H31           -0.0696     1.9303    -1.6945 H       
  32 H32           -0.1260    -0.5285    -1.6487 H       
  33 H33            2.5683     1.9368     1.6707 H       
  34 H34           -0.9997     7.1844    -0.7642 H       
  35 H35           -1.8772     5.6359    -0.7862 H       
  36 H36            5.7870     5.9734     0.1808 H       
  37 H37            4.8739     4.7119     1.0430 H       
  38 H38            4.9801     4.6767    -0.7335 H       
  39 H39           -1.1524     8.5884     1.0948 H       
  40 H40           -2.0025     9.0410     3.3603 H       
  41 H41           -3.1551     4.9491     3.7459 H       
  42 H42            3.0005    -1.5875     1.7421 H       
  43 H43            3.8502    -1.9188     3.8351 H       
  44 H44            4.5754    -0.4218     4.4685 H       
  45 H45            2.9981    -0.9747     5.0805 H       
@<TRIPOS>BOND
   1    1    2 ar
   2    1    5 ar
   3    1   31 1
   4    2   18 ar
   5    2   32 1
   6    3    4 ar
   7    3   24 1
   8    3   18 ar
   9    4    5 ar
  10    4   33 1
  11    5    6 1
  12    6    7 am
  13    6   11 1
  14    7    8 am
  15    7   14 2
  16    8    9 am
  17    8   13 1
  18    9   10 1
  19    9   12 2
  20   10   11 2
  21   10   16 1
  22   13   15 1
  23   13   34 1
  24   13   35 1
  25   15   19 ar
  26   15   23 ar
  27   16   17 1
  28   17   36 1
  29   17   37 1
  30   17   38 1
  31   18   28 1
  32   19   20 ar
  33   19   39 1
  34   20   21 ar
  35   20   40 1
  36   21   22 ar
  37   21   29 1
  38   22   23 ar
  39   22   41 1
  40   23   30 1
  41   24   25 am
  42   24   42 1
  43   25   26 2
  44   25   27 1
  45   27   43 1
  46   27   44 1
  47   27   45 1

#	End of record

