#	Name: ASD01840175
#	Creating user name:	WinNT
#	Creation time:	15. 06. 2019 19:37

#	Modifying user name:	WinNT
#	Modification time:	15. 06. 2019 19:37

#	Program:	/corina/corina34_cracker 3.40 0067  02.08.2006

@<TRIPOS>MOLECULE
ASD01840175
  46   49    0    0    0
SMALL
NO_CHARGES


@<TRIPOS>ATOM
   1 C1            -1.7605     1.3952    -0.0725 C.3     
   2 C2            -1.8600    -0.1406    -0.0423 C.3     
   3 N3            -1.3085    -0.7909    -1.2336 N.am    
   4 C4            -1.7465    -2.0121    -1.5985 C.2     
   5 C5            -1.1960    -2.6611    -2.7875 C.2     
   6 O6            -2.6005    -2.5749    -0.9381 O.2     
   7 C7            -1.5698    -3.8850    -3.2360 C.2     
   8 C8            -0.8769    -4.3112    -4.4378 C.ar    
   9 C9             0.0446    -3.3561    -4.8879 C.ar    
  10 S10            0.0286    -1.9561    -3.8247 S.3     
  11 C11           -0.9971    -5.5044    -5.1860 C.ar    
  12 C12           -0.2049    -5.6507    -6.3035 C.ar    
  13 N13            0.6377    -4.6935    -6.6517 N.ar    
  14 N14            0.7599    -3.6054    -5.9873 N.ar    
  15 C15           -0.2989    -6.9064    -7.1314 C.3     
  16 C16           -1.9632    -6.5848    -4.7731 C.3     
  17 N17           -2.5302    -4.6615    -2.6018 N.pl3   
  18 C18           -0.8787    -0.0824     1.1423 C.3     
  19 N19           -0.4517     1.2248     0.5962 N.3     
  20 C20           -0.2851     2.1636     1.6173 C.ar    
  21 C21            0.8658     2.9393     1.6810 C.ar    
  22 C22           -1.2729     2.3400     2.5832 C.ar    
  23 C23           -1.0617     3.2831     3.5757 C.ar    
  24 C24            0.1125     4.0125     3.5754 C.ar    
  25 N25            1.0264     3.8255     2.6431 N.ar    
  26 C26            0.3488     5.0405     4.6516 C.3     
  27 F27            0.9935     4.4389     5.7377 F       
  28 F28            1.1499     6.0698     4.1456 F       
  29 F29           -0.8777     5.5673     5.0707 F       
  30 H30           -1.6892     1.8109    -1.0776 H       
  31 H31           -2.5069     1.8959     0.5442 H       
  32 H32           -2.8501    -0.5109     0.2239 H       
  33 H33           -0.6280    -0.3424    -1.7597 H       
  34 H34           -1.0535    -6.7747    -7.9068 H       
  35 H35            0.6667    -7.1091    -7.5948 H       
  36 H36           -0.5777    -7.7435    -6.4915 H       
  37 H37           -2.9536    -6.3565    -5.1668 H       
  38 H38           -1.6270    -7.5433    -5.1686 H       
  39 H39           -2.0076    -6.6362    -3.6852 H       
  40 H40           -2.7568    -4.4907    -1.6742 H       
  41 H41           -2.9745    -5.3748    -3.0862 H       
  42 H42           -1.3671    -0.0139     2.1143 H       
  43 H43           -0.1029    -0.8473     1.1078 H       
  44 H44            1.6366     2.8144     0.9349 H       
  45 H45           -2.1811     1.7561     2.5588 H       
  46 H46           -1.8062     3.4469     4.3408 H       
@<TRIPOS>BOND
   1    1    2 1
   2    1   19 1
   3    1   30 1
   4    1   31 1
   5    2    3 1
   6    2   18 1
   7    2   32 1
   8    3    4 am
   9    3   33 1
  10    4    5 1
  11    4    6 2
  12    5    7 2
  13    5   10 1
  14    7    8 1
  15    7   17 1
  16    8    9 ar
  17    8   11 ar
  18    9   10 1
  19    9   14 ar
  20   11   12 ar
  21   11   16 1
  22   12   13 ar
  23   12   15 1
  24   13   14 ar
  25   15   34 1
  26   15   35 1
  27   15   36 1
  28   16   37 1
  29   16   38 1
  30   16   39 1
  31   17   40 1
  32   17   41 1
  33   18   19 1
  34   18   42 1
  35   18   43 1
  36   19   20 1
  37   20   22 ar
  38   20   21 ar
  39   21   25 ar
  40   21   44 1
  41   22   23 ar
  42   22   45 1
  43   23   24 ar
  44   23   46 1
  45   24   25 ar
  46   24   26 1
  47   26   27 1
  48   26   28 1
  49   26   29 1

#	End of record

