#	Name: ASD01882605
#	Creating user name:	WinNT
#	Creation time:	15. 06. 2019 19:44

#	Modifying user name:	WinNT
#	Modification time:	15. 06. 2019 19:44

#	Program:	/corina/corina34_cracker 3.40 0067  02.08.2006

@<TRIPOS>MOLECULE
ASD01882605
  60   63    0    0    0
SMALL
NO_CHARGES


@<TRIPOS>ATOM
   1 C1             0.0591     1.4276    -0.3391 C.2     
   2 C2            -0.0019     0.0547    -0.0322 C.2     
   3 C3             1.1396    -0.6005     0.3111 C.2     
   4 C4             2.3584     0.0980     0.3547 C.2     
   5 C5             2.4015     1.4139     0.0585 C.2     
   6 N6             1.2648     2.0833    -0.2878 N.pl3   
   7 N7            -0.2811     3.4637    -0.8691 N.2     
   8 N8            -0.8472     2.3201    -0.7031 N.2     
   9 C9             1.0018     3.3737    -0.6300 C.2     
  10 C10           -1.3167    -0.6801    -0.0831 C.3     
  11 F11           -1.7719    -0.9120     1.2193 F       
  12 F12           -2.2560     0.0922    -0.7749 F       
  13 F13           -1.1426    -1.9025    -0.7409 F       
  14 C14            1.0975    -2.0697     0.6439 C.3     
  15 N15            1.8410    -2.8239    -0.3741 N.3     
  16 C16            2.1411    -4.1834     0.0928 C.3     
  17 C17            3.0375    -4.8885    -0.9277 C.3     
  18 C18            2.3209    -4.9397    -2.2799 C.3     
  19 C19            1.9767    -3.5142    -2.7205 C.3     
  20 C20            1.1111    -2.8490    -1.6481 C.3     
  21 C21            3.2228    -5.5794    -3.3038 C.ar    
  22 C22            2.8238    -6.7372    -3.9506 C.ar    
  23 C23            3.6520    -7.3242    -4.8913 C.ar    
  24 C24            4.8786    -6.7532    -5.1846 C.ar    
  25 C25            5.2754    -5.5958    -4.5367 C.ar    
  26 C26            4.4450    -5.0074    -3.6012 C.ar    
  27 F27            5.6883    -7.3254    -6.1022 F       
  28 F28            1.6267    -7.2936    -3.6632 F       
  29 C29            2.0057     4.4940    -0.7199 C.3     
  30 C30            2.5788     4.5529    -2.1373 C.3     
  31 C31            1.4462     4.8016    -3.1354 C.3     
  32 C32            3.5979     5.6903    -2.2285 C.3     
  33 C33            3.2653     3.2255    -2.4653 C.3     
  34 H34            3.2654    -0.4211     0.6271 H       
  35 H35            3.3435     1.9409     0.0955 H       
  36 H36            1.5512    -2.2340     1.6213 H       
  37 H37            0.0617    -2.4085     0.6626 H       
  38 H38            2.6542    -4.1327     1.0531 H       
  39 H39            1.2118    -4.7416     0.2068 H       
  40 H40            3.9727    -4.3384    -1.0320 H       
  41 H41            3.2472    -5.9029    -0.5883 H       
  42 H42            1.4049    -5.5228    -2.1849 H       
  43 H43            2.8953    -2.9425    -2.8530 H       
  44 H44            1.4286    -3.5467    -3.6621 H       
  45 H45            0.1866    -3.4134    -1.5259 H       
  46 H46            0.8761    -1.8290    -1.9522 H       
  47 H47            3.3418    -8.2273    -5.3959 H       
  48 H48            6.2322    -5.1501    -4.7653 H       
  49 H49            4.7536    -4.1023    -3.0993 H       
  50 H50            1.5166     5.4397    -0.4862 H       
  51 H51            2.8125     4.3168    -0.0088 H       
  52 H52            0.9571     5.7473    -2.9017 H       
  53 H53            1.8545     4.8435    -4.1452 H       
  54 H54            0.7201     3.9913    -3.0704 H       
  55 H55            4.4048     5.5131    -1.5174 H       
  56 H56            4.0062     5.7322    -3.2383 H       
  57 H57            3.1089     6.6360    -1.9948 H       
  58 H58            2.5392     2.4151    -2.4003 H       
  59 H59            3.6735     3.2674    -3.4751 H       
  60 H60            4.0721     3.0482    -1.7542 H       
@<TRIPOS>BOND
   1    1    2 1
   2    1    6 1
   3    1    8 2
   4    2    3 2
   5    2   10 1
   6    3    4 1
   7    3   14 1
   8    4    5 2
   9    4   34 1
  10    5    6 1
  11    5   35 1
  12    6    9 1
  13    7    8 1
  14    7    9 2
  15    9   29 1
  16   10   11 1
  17   10   12 1
  18   10   13 1
  19   14   15 1
  20   14   36 1
  21   14   37 1
  22   15   16 1
  23   15   20 1
  24   16   17 1
  25   16   38 1
  26   16   39 1
  27   17   18 1
  28   17   40 1
  29   17   41 1
  30   18   19 1
  31   18   21 1
  32   18   42 1
  33   19   20 1
  34   19   43 1
  35   19   44 1
  36   20   45 1
  37   20   46 1
  38   21   22 ar
  39   21   26 ar
  40   22   23 ar
  41   22   28 1
  42   23   24 ar
  43   23   47 1
  44   24   25 ar
  45   24   27 1
  46   25   26 ar
  47   25   48 1
  48   26   49 1
  49   29   30 1
  50   29   50 1
  51   29   51 1
  52   30   31 1
  53   30   32 1
  54   30   33 1
  55   31   52 1
  56   31   53 1
  57   31   54 1
  58   32   55 1
  59   32   56 1
  60   32   57 1
  61   33   58 1
  62   33   59 1
  63   33   60 1

#	End of record

