#	Name: ASD05060088
#	Creating user name:	WinNT
#	Creation time:	15. 06. 2019 20:56

#	Modifying user name:	WinNT
#	Modification time:	15. 06. 2019 20:56

#	Program:	/corina/corina34_cracker 3.40 0067  02.08.2006

@<TRIPOS>MOLECULE
ASD05060088
  24   25    0    0    0
SMALL
NO_CHARGES


@<TRIPOS>ATOM
   1 C1            -0.0184     1.5028     0.0103 C.3     
   2 C2             0.0021    -0.0041     0.0020 C.2     
   3 C3             0.0237    -0.8309     1.0978 C.2     
   4 C4             0.0315    -0.4657     2.5230 C.2     
   5 O5            -1.0177    -0.3292     3.1212 O.2     
   6 O6             1.2022    -0.2824     3.1653 O.3     
   7 C7             0.0363    -2.1790     0.4913 C.2     
   8 N8             0.0213    -1.9718    -0.8006 N.2     
   9 O9            -0.0031    -0.7965    -1.0720 O.3     
  10 C10            0.0612    -3.4844     1.1952 C.ar    
  11 C11           -0.6205    -4.5782     0.6647 C.ar    
  12 C12           -0.5939    -5.7904     1.3239 C.ar    
  13 C13            0.1076    -5.9209     2.5090 C.ar    
  14 C14            0.7859    -4.8387     3.0401 C.ar    
  15 C15            0.7710    -3.6233     2.3865 C.ar    
  16 H16            1.0042     1.8801     0.0026 H       
  17 H17           -0.5455     1.8639    -0.8728 H       
  18 H18           -0.5286     1.8543     0.9071 H       
  19 H19            1.1567    -0.0434     4.1012 H       
  20 H20           -1.1687    -4.4772    -0.2603 H       
  21 H21           -1.1221    -6.6385     0.9139 H       
  22 H22            0.1254    -6.8713     3.0216 H       
  23 H23            1.3320    -4.9464     3.9656 H       
  24 H24            1.3047    -2.7802     2.7998 H       
@<TRIPOS>BOND
   1    1    2 1
   2    1   16 1
   3    1   17 1
   4    1   18 1
   5    2    3 2
   6    2    9 1
   7    3    4 1
   8    3    7 1
   9    4    5 2
  10    4    6 1
  11    6   19 1
  12    7    8 2
  13    7   10 1
  14    8    9 1
  15   10   11 ar
  16   10   15 ar
  17   11   12 ar
  18   11   20 1
  19   12   13 ar
  20   12   21 1
  21   13   14 ar
  22   13   22 1
  23   14   15 ar
  24   14   23 1
  25   15   24 1

#	End of record

