#	Name: ASD00170300
#	Creating user name:	WinNT
#	Creation time:	15. 06. 2019 18:31

#	Modifying user name:	WinNT
#	Modification time:	15. 06. 2019 18:31

#	Program:	/corina/corina34_cracker 3.40 0067  02.08.2006

@<TRIPOS>MOLECULE
ASD00170300
  32   34    0    0    0
SMALL
NO_CHARGES


@<TRIPOS>ATOM
   1 S1             0.1576     1.6244     0.6733 S.3     
   2 N2            -0.1177     0.3146    -0.3758 N.pl3   
   3 C3             1.1098    -0.1395    -0.7263 C.2     
   4 N4             2.1489     0.4587    -0.2381 N.2     
   5 C5             1.9247     1.4945     0.5872 C.2     
   6 N6             2.8187     2.2471     1.1969 N.2     
   7 C7            -1.3530    -0.1892    -0.7897 C.ar    
   8 C8             1.2588    -1.2896    -1.6430 C.ar    
   9 C9             4.2478     1.9887     1.0041 C.3     
  10 C10           -2.2266     0.6154    -1.5112 C.ar    
  11 C11           -3.4469     0.1145    -1.9194 C.ar    
  12 C12           -3.8005    -1.1874    -1.6103 C.ar    
  13 C13           -2.9325    -1.9912    -0.8919 C.ar    
  14 C14           -1.7084    -1.4977    -0.4859 C.ar    
  15 C15            0.2898    -1.5402    -2.6159 C.ar    
  16 C16            0.4345    -2.6145    -3.4686 C.ar    
  17 C17            1.5382    -3.4440    -3.3607 C.ar    
  18 C18            2.5030    -3.2003    -2.3973 C.ar    
  19 C19            2.3720    -2.1258    -1.5427 C.ar    
  20 Cl20          -5.3360    -1.8133    -2.1242 Cl      
  21 Cl21           1.7130    -4.7950    -4.4368 Cl      
  22 H22            4.8283     2.7068     1.5833 H       
  23 H23            4.4826     0.9781     1.3382 H       
  24 H24            4.4958     2.0889    -0.0525 H       
  25 H25           -1.9515     1.6316    -1.7521 H       
  26 H26           -4.1262     0.7394    -2.4801 H       
  27 H27           -3.2113    -3.0066    -0.6518 H       
  28 H28           -1.0314    -2.1255     0.0744 H       
  29 H29           -0.5717    -0.8944    -2.7006 H       
  30 H30           -0.3146    -2.8094    -4.2218 H       
  31 H31            3.3616    -3.8506    -2.3178 H       
  32 H32            3.1251    -1.9366    -0.7921 H       
@<TRIPOS>BOND
   1    1    2 1
   2    1    5 1
   3    2    3 1
   4    2    7 1
   5    3    4 2
   6    3    8 1
   7    4    5 1
   8    5    6 2
   9    6    9 1
  10    7   10 ar
  11    7   14 ar
  12    8   15 ar
  13    8   19 ar
  14    9   22 1
  15    9   23 1
  16    9   24 1
  17   10   11 ar
  18   10   25 1
  19   11   12 ar
  20   11   26 1
  21   12   13 ar
  22   12   20 1
  23   13   14 ar
  24   13   27 1
  25   14   28 1
  26   15   16 ar
  27   15   29 1
  28   16   17 ar
  29   16   30 1
  30   17   18 ar
  31   17   21 1
  32   18   19 ar
  33   18   31 1
  34   19   32 1

#	End of record

