#	Name: ASD05380003
#	Creating user name:	WinNT
#	Creation time:	15. 06. 2019 20:59

#	Modifying user name:	WinNT
#	Modification time:	15. 06. 2019 20:59

#	Program:	/corina/corina34_cracker 3.40 0067  02.08.2006

@<TRIPOS>MOLECULE
ASD05380003
  44   46    0    0    0
SMALL
NO_CHARGES


@<TRIPOS>ATOM
   1 C1             0.0021     1.2306    -0.2154 C.ar    
   2 C2            -0.0924    -0.1699    -0.2440 C.ar    
   3 N3            -1.3292    -0.7888    -0.1177 N.pl3   
   4 N4            -1.9043     2.4612    -1.1249 N.am    
   5 C5            -1.2096     2.0524    -0.0447 C.2     
   6 C6             1.2526     1.8403    -0.3439 C.ar    
   7 C7             2.3821     1.0663    -0.4975 C.ar    
   8 C8             2.2855    -0.3158    -0.5253 C.ar    
   9 C9             1.0577    -0.9332    -0.3996 C.ar    
  10 O10           -1.5826     2.3615     1.0708 O.2     
  11 C11            1.3658     3.3427    -0.3151 C.3     
  12 N12            1.3220     3.8105     1.0767 N.3     
  13 C13            1.6655     5.2373     1.1641 C.3     
  14 C14            1.5497     5.6963     2.6200 C.3     
  15 O15            2.3955     4.8846     3.4393 O.3     
  16 C16            2.0884     3.4892     3.3788 C.3     
  17 C17            2.2097     3.0077     1.9305 C.3     
  18 C18           -3.1132     3.1450    -0.9611 C.ar    
  19 C19           -3.9584     2.8219     0.0926 C.ar    
  20 C20           -5.1512     3.4994     0.2518 C.ar    
  21 C21           -5.5047     4.4983    -0.6368 C.ar    
  22 C22           -4.6655     4.8224    -1.6870 C.ar    
  23 C23           -3.4686     4.1526    -1.8485 C.ar    
  24 H24           -2.1307    -0.2533    -0.0095 H       
  25 H25           -1.3916    -1.7566    -0.1378 H       
  26 H26           -1.5657     2.2812    -2.0159 H       
  27 H27            3.3479     1.5393    -0.5970 H       
  28 H28            3.1768    -0.9136    -0.6461 H       
  29 H29            0.9910    -2.0109    -0.4220 H       
  30 H30            2.3089     3.6448    -0.7704 H       
  31 H31            0.5370     3.7803    -0.8717 H       
  32 H32            2.6872     5.3877     0.8152 H       
  33 H33            0.9798     5.8153     0.5446 H       
  34 H34            1.8585     6.7387     2.6987 H       
  35 H35            0.5164     5.5961     2.9522 H       
  36 H36            2.7868     2.9353     4.0061 H       
  37 H37            1.0708     3.3247     3.7330 H       
  38 H38            1.9213     1.9583     1.8704 H       
  39 H39            3.2401     3.1225     1.5939 H       
  40 H40           -3.6832     2.0414     0.7866 H       
  41 H41           -5.8089     3.2487     1.0709 H       
  42 H42           -6.4385     5.0261    -0.5106 H       
  43 H43           -4.9445     5.6030    -2.3793 H       
  44 H44           -2.8115     4.4093    -2.6663 H       
@<TRIPOS>BOND
   1    1    2 ar
   2    1    6 ar
   3    1    5 1
   4    2    3 1
   5    2    9 ar
   6    3   24 1
   7    3   25 1
   8    4    5 am
   9    4   18 1
  10    4   26 1
  11    5   10 2
  12    6    7 ar
  13    6   11 1
  14    7    8 ar
  15    7   27 1
  16    8    9 ar
  17    8   28 1
  18    9   29 1
  19   11   12 1
  20   11   30 1
  21   11   31 1
  22   12   13 1
  23   12   17 1
  24   13   14 1
  25   13   32 1
  26   13   33 1
  27   14   15 1
  28   14   34 1
  29   14   35 1
  30   15   16 1
  31   16   17 1
  32   16   36 1
  33   16   37 1
  34   17   38 1
  35   17   39 1
  36   18   19 ar
  37   18   23 ar
  38   19   20 ar
  39   19   40 1
  40   20   21 ar
  41   20   41 1
  42   21   22 ar
  43   21   42 1
  44   22   23 ar
  45   22   43 1
  46   23   44 1

#	End of record

