#	Name: ASD01870058
#	Creating user name:	WinNT
#	Creation time:	15. 06. 2019 19:38

#	Modifying user name:	WinNT
#	Modification time:	15. 06. 2019 19:38

#	Program:	/corina/corina34_cracker 3.40 0067  02.08.2006

@<TRIPOS>MOLECULE
ASD01870058
  42   44    0    0    0
SMALL
NO_CHARGES


@<TRIPOS>ATOM
   1 C1            -0.0167     1.3774     0.0096 C.ar    
   2 C2             0.0021    -0.0041     0.0020 C.ar    
   3 N3             1.1354    -0.6695    -0.0124 N.ar    
   4 C4             2.3261    -0.0578    -0.0204 C.ar    
   5 C5             2.3957     1.3311    -0.0137 C.ar    
   6 C6             1.1851     2.0719     0.0019 C.ar    
   7 S7             3.9418    -0.7499    -0.0395 S.3     
   8 C8             4.7120     0.8266    -0.0385 C.2     
   9 C9             3.7719     1.8347    -0.0242 C.2     
  10 C10            6.0889     1.1773    -0.0506 C.2     
  11 N11            6.4256     2.4824    -0.0475 N.am    
  12 C12            5.4572     3.4333    -0.0332 C.2     
  13 N13            4.1962     3.1281    -0.0221 N.2     
  14 N14            1.2027     3.4594     0.0092 N.3     
  15 C15            7.8371     2.8747    -0.0592 C.3     
  16 O16            6.9500     0.3135    -0.0630 O.2     
  17 C17            0.5124     4.0008    -1.1691 C.3     
  18 C18            0.6190     3.9867     1.2498 C.3     
  19 C19            8.1233     3.7121    -1.3072 C.3     
  20 C20            8.1474     3.7001     1.1911 C.3     
  21 C21            7.9809     2.8244     2.4346 C.3     
  22 C22            7.9329     2.8485    -2.5557 C.3     
  23 H23           -0.9557     1.9109     0.0170 H       
  24 H24           -0.9315    -0.5470     0.0084 H       
  25 H25            5.7447     4.4743    -0.0305 H       
  26 H26            8.4622     1.9818    -0.0695 H       
  27 H27           -0.5244     3.6643    -1.1692 H       
  28 H28            0.5409     5.0900    -1.1383 H       
  29 H29            1.0084     3.6497    -2.0740 H       
  30 H30            1.1925     3.6255     2.1034 H       
  31 H31            0.6453     5.0762     1.2293 H       
  32 H32           -0.4139     3.6498     1.3373 H       
  33 H33            7.4368     4.5581    -1.3425 H       
  34 H34            9.1494     4.0782    -1.2717 H       
  35 H35            9.1726     4.0665     1.1393 H       
  36 H36            7.4618     4.5456     1.2477 H       
  37 H37            8.6665     1.9789     2.3780 H       
  38 H38            8.2020     3.4125     3.3254 H       
  39 H39            6.9557     2.4580     2.4864 H       
  40 H40            8.6194     2.0025    -2.5205 H       
  41 H41            6.9068     2.4824    -2.5913 H       
  42 H42            8.1368     3.4451    -3.4448 H       
@<TRIPOS>BOND
   1    1    2 ar
   2    1    6 ar
   3    1   23 1
   4    2    3 ar
   5    2   24 1
   6    3    4 ar
   7    4    5 ar
   8    4    7 1
   9    5    6 ar
  10    5    9 1
  11    6   14 1
  12    7    8 1
  13    8    9 2
  14    8   10 1
  15    9   13 1
  16   10   11 am
  17   10   16 2
  18   11   12 1
  19   11   15 1
  20   12   13 2
  21   12   25 1
  22   14   17 1
  23   14   18 1
  24   15   19 1
  25   15   20 1
  26   15   26 1
  27   17   27 1
  28   17   28 1
  29   17   29 1
  30   18   30 1
  31   18   31 1
  32   18   32 1
  33   19   22 1
  34   19   33 1
  35   19   34 1
  36   20   21 1
  37   20   35 1
  38   20   36 1
  39   21   37 1
  40   21   38 1
  41   21   39 1
  42   22   40 1
  43   22   41 1
  44   22   42 1

#	End of record

