#	Name: ASD07300686
#	Creating user name:	WinNT
#	Creation time:	15. 06. 2019 21:10

#	Modifying user name:	WinNT
#	Modification time:	15. 06. 2019 21:10

#	Program:	/corina/corina34_cracker 3.40 0067  02.08.2006

@<TRIPOS>MOLECULE
ASD07300686
  44   45    0    0    0
SMALL
NO_CHARGES


@<TRIPOS>ATOM
   1 C1            -0.1958     1.1952    -0.2861 C.ar    
   2 C2            -0.6117    -0.1091    -0.4870 C.ar    
   3 C3             0.3360    -1.1045    -0.6476 C.ar    
   4 C4             1.6873    -0.7476    -0.5997 C.ar    
   5 C5             2.0245     0.5885    -0.3934 C.ar    
   6 N6             1.0869     1.5015    -0.2457 N.ar    
   7 O7             4.2273    -1.6387    -0.7526 O.3     
   8 B8             2.8062    -1.8348    -0.7751 Du      
   9 O9             2.6317    -3.2422    -0.9924 O.3     
  10 C10            3.6601    -3.8653    -0.1945 C.3     
  11 C11            4.7419    -2.7782    -0.0319 C.3     
  12 C12            6.0633    -3.2450    -0.6459 C.3     
  13 C13            4.9323    -2.4324     1.4463 C.3     
  14 C14            3.1025    -4.2711     1.1713 C.3     
  15 C15            4.2335    -5.0837    -0.9209 C.3     
  16 C16           -1.2241     2.2838    -0.1169 C.3     
  17 C17           -0.9660     3.0300     1.1936 C.3     
  18 C18           -2.0619     4.0756     1.4095 C.3     
  19 O19           -1.1341     3.1982    -1.2114 O.3     
  20 C20           -2.3872     3.4800    -1.8379 C.3     
  21 H21           -1.6645    -0.3477    -0.5178 H       
  22 H22            0.0397    -2.1309    -0.8055 H       
  23 H23            3.0642     0.8780    -0.3539 H       
  24 H24            6.7998    -2.4446    -0.5747 H       
  25 H25            6.4250    -4.1207    -0.1070 H       
  26 H26            5.9063    -3.5022    -1.6934 H       
  27 H27            3.9792    -2.1176     1.8715 H       
  28 H28            5.2964    -3.3098     1.9807 H       
  29 H29            5.6567    -1.6234     1.5398 H       
  30 H30            2.3003    -4.9963     1.0354 H       
  31 H31            3.8970    -4.7161     1.7704 H       
  32 H32            2.7132    -3.3899     1.6812 H       
  33 H33            4.6403    -4.7744    -1.8837 H       
  34 H34            5.0256    -5.5270    -0.3173 H       
  35 H35            3.4433    -5.8176    -1.0791 H       
  36 H36           -2.2203     1.8422    -0.0935 H       
  37 H37           -0.9713     2.3217     2.0221 H       
  38 H38            0.0039     3.5249     1.1450 H       
  39 H39           -1.8272     4.6710     2.2919 H       
  40 H40           -2.1200     4.7264     0.5370 H       
  41 H41           -3.0190     3.5744     1.5534 H       
  42 H42           -2.8529     2.5469    -2.1549 H       
  43 H43           -3.0406     3.9902    -1.1301 H       
  44 H44           -2.2238     4.1180    -2.7064 H       
@<TRIPOS>BOND
   1    1    2 ar
   2    1    6 ar
   3    1   16 1
   4    2    3 ar
   5    2   21 1
   6    3    4 ar
   7    3   22 1
   8    4    5 ar
   9    4    8 1
  10    5    6 ar
  11    5   23 1
  12    7    8 1
  13    7   11 1
  14    8    9 1
  15    9   10 1
  16   10   11 1
  17   10   14 1
  18   10   15 1
  19   11   12 1
  20   11   13 1
  21   12   24 1
  22   12   25 1
  23   12   26 1
  24   13   27 1
  25   13   28 1
  26   13   29 1
  27   14   30 1
  28   14   31 1
  29   14   32 1
  30   15   33 1
  31   15   34 1
  32   15   35 1
  33   16   17 1
  34   16   19 1
  35   16   36 1
  36   17   18 1
  37   17   37 1
  38   17   38 1
  39   18   39 1
  40   18   40 1
  41   18   41 1
  42   19   20 1
  43   20   42 1
  44   20   43 1
  45   20   44 1

#	End of record

