#	Name: ASD01148330
#	Creating user name:	WinNT
#	Creation time:	15. 06. 2019 19:02

#	Modifying user name:	WinNT
#	Modification time:	15. 06. 2019 19:02

#	Program:	/corina/corina34_cracker 3.40 0067  02.08.2006

@<TRIPOS>MOLECULE
ASD01148330
  58   61    0    0    0
SMALL
NO_CHARGES


@<TRIPOS>ATOM
   1 C1            -0.0220     1.5715     0.1296 C.ar    
   2 C2            -0.0161     0.1894     0.1522 C.ar    
   3 C3             1.1838    -0.4969     0.1461 C.ar    
   4 C4             2.3779     0.1990     0.1170 C.ar    
   5 C5             2.3720     1.5812     0.0935 C.ar    
   6 C6             1.1721     2.2674     0.1010 C.ar    
   7 C7             3.6737     2.3398     0.0623 C.3     
   8 O8             4.6882     1.5954    -0.6421 O.3     
   9 C9             3.5528     3.6115    -0.8109 C.3     
  10 C10            4.0455     3.1312    -2.1628 C.2     
  11 N11            4.6607     2.0089    -1.9938 N.2     
  12 C12            3.8543     3.8274    -3.4502 C.ar    
  13 C13            4.3622     3.2713    -4.6274 C.ar    
  14 C14            3.1606     5.0393    -3.4927 C.ar    
  15 C15            2.9823     5.6886    -4.6934 C.ar    
  16 C16            3.4950     5.1356    -5.8695 C.ar    
  17 C17            4.1839     3.9204    -5.8278 C.ar    
  18 C18            3.3037     5.8323    -7.1579 C.2     
  19 O19            4.2639     6.2705    -7.7601 O.2     
  20 N20            2.0641     5.9819    -7.6655 N.am    
  21 C21            4.7374     3.3241    -7.0963 C.3     
  22 C22            4.1349     2.6890     1.4787 C.3     
  23 F23            4.3017     1.5130     2.2180 F       
  24 F24            5.3513     3.3773     1.4167 F       
  25 F25            3.1735     3.4958     2.0966 F       
  26 C26            1.8592     6.7855    -8.8731 C.3     
  27 C27            1.9778     5.9037   -10.0894 C.ar    
  28 N28            3.1671     5.6588   -10.6034 N.ar    
  29 C29            1.0131     5.3922    -7.0621 C.2     
  30 C30            3.3189     4.8934   -11.6666 C.ar    
  31 C31            2.2256     4.3167   -12.2843 C.ar    
  32 C32            0.9584     4.5514   -11.7723 C.ar    
  33 C33            0.8390     5.3563   -10.6500 C.ar    
  34 O34            1.1695     4.7969    -6.0149 O.2     
  35 O35           -0.2098     5.4630    -7.6198 O.3     
  36 C36           -1.2950     4.8048    -6.9146 C.3     
  37 H37           -0.9596     2.1076     0.1298 H       
  38 H38           -0.9490    -0.3543     0.1749 H       
  39 H39            1.1884    -1.5767     0.1645 H       
  40 H40            3.3154    -0.3371     0.1130 H       
  41 H41            1.1674     3.3473     0.0823 H       
  42 H42            2.5158     3.9418    -0.8720 H       
  43 H43            4.1914     4.4069    -0.4266 H       
  44 H44            4.8949     2.3324    -4.5952 H       
  45 H45            2.7640     5.4667    -2.5836 H       
  46 H46            2.4458     6.6254    -4.7263 H       
  47 H47            5.7179     3.7535    -7.3021 H       
  48 H48            4.8309     2.2444    -6.9796 H       
  49 H49            4.0637     3.5430    -7.9248 H       
  50 H50            0.8669     7.2356    -8.8460 H       
  51 H51            2.6134     7.5712    -8.9191 H       
  52 H52            4.3091     4.7155   -12.0592 H       
  53 H53            2.3563     3.6914   -13.1551 H       
  54 H54            0.0857     4.1143   -12.2345 H       
  55 H55           -0.1324     5.5602   -10.2241 H       
  56 H56           -1.0762     3.7409    -6.8227 H       
  57 H57           -1.4005     5.2412    -5.9214 H       
  58 H58           -2.2232     4.9381    -7.4704 H       
@<TRIPOS>BOND
   1    1    2 ar
   2    1    6 ar
   3    1   37 1
   4    2    3 ar
   5    2   38 1
   6    3    4 ar
   7    3   39 1
   8    4    5 ar
   9    4   40 1
  10    5    6 ar
  11    5    7 1
  12    6   41 1
  13    7    8 1
  14    7    9 1
  15    7   22 1
  16    8   11 1
  17    9   10 1
  18    9   42 1
  19    9   43 1
  20   10   11 2
  21   10   12 1
  22   12   13 ar
  23   12   14 ar
  24   13   17 ar
  25   13   44 1
  26   14   15 ar
  27   14   45 1
  28   15   16 ar
  29   15   46 1
  30   16   17 ar
  31   16   18 1
  32   17   21 1
  33   18   19 2
  34   18   20 am
  35   20   26 1
  36   20   29 am
  37   21   47 1
  38   21   48 1
  39   21   49 1
  40   22   23 1
  41   22   24 1
  42   22   25 1
  43   26   27 1
  44   26   50 1
  45   26   51 1
  46   27   28 ar
  47   27   33 ar
  48   28   30 ar
  49   29   34 2
  50   29   35 1
  51   30   31 ar
  52   30   52 1
  53   31   32 ar
  54   31   53 1
  55   32   33 ar
  56   32   54 1
  57   33   55 1
  58   35   36 1
  59   36   56 1
  60   36   57 1
  61   36   58 1

#	End of record

