#	Name: ASD02408155
#	Creating user name:	WinNT
#	Creation time:	15. 06. 2019 20:21

#	Modifying user name:	WinNT
#	Modification time:	15. 06. 2019 20:21

#	Program:	/corina/corina34_cracker 3.40 0067  02.08.2006

@<TRIPOS>MOLECULE
ASD02408155
  51   53    0    0    0
SMALL
NO_CHARGES


@<TRIPOS>ATOM
   1 O1            -0.0758     2.3848    -0.4111 O.3     
   2 C2             0.2131     1.0721    -0.2104 C.ar    
   3 C3             1.5314     0.6408    -0.2245 C.ar    
   4 C4            -0.8098     0.1620     0.0147 C.ar    
   5 C5            -0.5135    -1.1715     0.2188 C.ar    
   6 C6             0.8012    -1.5999     0.1991 C.ar    
   7 C7             1.8225    -0.6942    -0.0197 C.ar    
   8 C8            -2.2427     0.6282     0.0368 C.3     
   9 C9            -2.7807     0.6651    -1.3704 C.2     
  10 N10           -4.0536     1.0578    -1.5708 N.am    
  11 N11           -1.9961     0.3207    -2.3551 N.2     
  12 C12           -2.4196     0.3346    -3.6255 C.2     
  13 C13           -3.7383     0.7289    -3.9058 C.2     
  14 C14           -4.5680     1.1032    -2.8177 C.2     
  15 N15           -1.5736    -0.0321    -4.6432 N.pl3   
  16 C16           -0.6568    -1.1688    -4.4816 C.3     
  17 O17           -5.7204     1.4536    -3.0043 O.2     
  18 C18            1.0278     3.2657    -0.6306 C.3     
  19 C19            0.7667    -0.7040    -4.8045 C.3     
  20 C20            0.7889    -0.0718    -6.1981 C.3     
  21 C21           -0.1347     1.1484    -6.2213 C.3     
  22 C22           -1.5724     0.7010    -5.9165 C.3     
  23 C23            2.2159     0.3626    -6.5381 C.3     
  24 C24            2.2623     0.8800    -7.9772 C.3     
  25 O25            3.5952     1.2857    -8.2948 O.3     
  26 C26           -4.2291     0.7573    -5.2508 C.1     
  27 N27           -4.6185     0.7798    -6.3178 N.1     
  28 H28            2.3296     1.3479    -0.3957 H       
  29 H29           -1.3093    -1.8803     0.3944 H       
  30 H30            1.0307    -2.6430     0.3590 H       
  31 H31            2.8484    -1.0312    -0.0346 H       
  32 H32           -2.8393    -0.0596     0.6359 H       
  33 H33           -2.2933     1.6265     0.4714 H       
  34 H34           -4.6047     1.3095    -0.8132 H       
  35 H35           -0.6992    -1.5293    -3.4538 H       
  36 H36           -0.9434    -1.9692    -5.1638 H       
  37 H37            0.6589     4.2810    -0.7763 H       
  38 H38            1.6904     3.2406     0.2345 H       
  39 H39            1.5759     2.9476    -1.5175 H       
  40 H40            1.0854     0.0318    -4.0661 H       
  41 H41            1.4425    -1.5589    -4.7821 H       
  42 H42            0.4464    -0.8004    -6.9329 H       
  43 H43            0.1925     1.8667    -5.4696 H       
  44 H44           -0.1004     1.6118    -7.2073 H       
  45 H45           -1.9313     0.0541    -6.7171 H       
  46 H46           -2.2175     1.5757    -5.8338 H       
  47 H47            2.5267     1.1548    -5.8570 H       
  48 H48            2.8889    -0.4888    -6.4363 H       
  49 H49            1.9516     0.0877    -8.6584 H       
  50 H50            1.5894     1.7314    -8.0791 H       
  51 H51            3.6992     1.6255    -9.1942 H       
@<TRIPOS>BOND
   1    1    2 1
   2    1   18 1
   3    2    3 ar
   4    2    4 ar
   5    3    7 ar
   6    3   28 1
   7    4    5 ar
   8    4    8 1
   9    5    6 ar
  10    5   29 1
  11    6    7 ar
  12    6   30 1
  13    7   31 1
  14    8    9 1
  15    8   32 1
  16    8   33 1
  17    9   10 1
  18    9   11 2
  19   10   14 am
  20   10   34 1
  21   11   12 1
  22   12   13 2
  23   12   15 1
  24   13   14 1
  25   13   26 1
  26   14   17 2
  27   15   16 1
  28   15   22 1
  29   16   19 1
  30   16   35 1
  31   16   36 1
  32   18   37 1
  33   18   38 1
  34   18   39 1
  35   19   20 1
  36   19   40 1
  37   19   41 1
  38   20   21 1
  39   20   23 1
  40   20   42 1
  41   21   22 1
  42   21   43 1
  43   21   44 1
  44   22   45 1
  45   22   46 1
  46   23   24 1
  47   23   47 1
  48   23   48 1
  49   24   25 1
  50   24   49 1
  51   24   50 1
  52   25   51 1
  53   26   27 3

#	End of record

