#	Name: ASD03082193
#	Creating user name:	WinNT
#	Creation time:	15. 06. 2019 20:27

#	Modifying user name:	WinNT
#	Modification time:	15. 06. 2019 20:27

#	Program:	/corina/corina34_cracker 3.40 0067  02.08.2006

@<TRIPOS>MOLECULE
ASD03082193
  39   42    0    0    0
SMALL
NO_CHARGES


@<TRIPOS>ATOM
   1 C1             1.2343    -0.0048     0.7407 C.ar    
   2 C2             0.0442     0.4566     0.1928 C.ar    
   3 C3            -0.0566     1.7763    -0.2300 C.ar    
   4 C4             1.0256     2.6244    -0.1043 C.ar    
   5 C5             2.2092     2.1617     0.4418 C.ar    
   6 C6             2.3130     0.8490     0.8635 C.ar    
   7 N7            -1.0490    -0.4046     0.0667 N.pl3   
   8 H8            -0.9052    -1.3519    -0.0846 H       
   9 C9            -2.3483     0.0984     0.1584 C.2     
  10 N10           -3.4659    -0.6028    -0.0403 N.2     
  11 N11           -2.6667     1.3360     0.4596 N.2     
  12 N12           -4.0687     1.4139     0.4431 N.pl3   
  13 C13           -4.5156     0.1776     0.1261 C.2     
  14 C14           -4.8853     2.5986     0.7188 C.3     
  15 C15           -5.9311    -0.2272    -0.0107 C.ar    
  16 C16           -6.9168     0.7300    -0.2722 C.ar    
  17 N17           -8.1785     0.3848    -0.3967 N.ar    
  18 C18           -8.5682    -0.8804    -0.2800 C.ar    
  19 C19           -7.6362    -1.9016    -0.0172 C.ar    
  20 C20           -6.2957    -1.5706     0.1144 C.ar    
  21 O21           -5.0928     3.3266    -0.4932 O.3     
  22 C22           -9.8673    -1.5558    -0.3658 C.2     
  23 C23           -9.6281    -2.8599    -0.1592 C.2     
  24 O24           -8.3162    -3.0634     0.0458 O.3     
  25 C25            0.9174     4.0558    -0.5630 C.3     
  26 F26            0.4675     4.8521     0.4957 F       
  27 F27            2.1728     4.5066    -0.9848 F       
  28 F28            0.0113     4.1377    -1.6258 F       
  29 H29            1.3146    -1.0288     1.0744 H       
  30 H30           -0.9804     2.1381    -0.6568 H       
  31 H31            3.0542     2.8272     0.5389 H       
  32 H32            3.2386     0.4909     1.2894 H       
  33 H33           -5.8478     2.2896     1.1264 H       
  34 H34           -4.3720     3.2337     1.4408 H       
  35 H35           -6.6368     1.7682    -0.3729 H       
  36 H36           -5.5544    -2.3298     0.3158 H       
  37 H37           -5.6269     4.1255    -0.3856 H       
  38 H38          -10.8253    -1.0954    -0.5569 H       
  39 H39          -10.3814    -3.6339    -0.1575 H       
@<TRIPOS>BOND
   1    1    2 ar
   2    1    6 ar
   3    1   29 1
   4    2    3 ar
   5    2    7 1
   6    3    4 ar
   7    3   30 1
   8    4    5 ar
   9    4   25 1
  10    5    6 ar
  11    5   31 1
  12    6   32 1
  13    7    8 1
  14    7    9 1
  15    9   10 1
  16    9   11 2
  17   10   13 2
  18   11   12 1
  19   12   13 1
  20   12   14 1
  21   13   15 1
  22   14   21 1
  23   14   33 1
  24   14   34 1
  25   15   16 ar
  26   15   20 ar
  27   16   17 ar
  28   16   35 1
  29   17   18 ar
  30   18   19 ar
  31   18   22 1
  32   19   20 ar
  33   19   24 1
  34   20   36 1
  35   21   37 1
  36   22   23 2
  37   22   38 1
  38   23   24 1
  39   23   39 1
  40   25   26 1
  41   25   27 1
  42   25   28 1

#	End of record

