#	Name: ASD01916614
#	Creating user name:	WinNT
#	Creation time:	15. 06. 2019 20:07

#	Modifying user name:	WinNT
#	Modification time:	15. 06. 2019 20:07

#	Program:	/corina/corina34_cracker 3.40 0067  02.08.2006

@<TRIPOS>MOLECULE
ASD01916614
  17   16    0    0    0
SMALL
NO_CHARGES


@<TRIPOS>ATOM
   1 C1            -0.0184     1.5028     0.0103 C.2     
   2 C2             0.0021    -0.0041     0.0020 C.3     
   3 C3            -1.4333    -0.5336     0.0129 C.3     
   4 C4            -1.4133    -2.0055     0.0048 C.1     
   5 C5            -1.3974    -3.1794    -0.0017 C.1     
   6 O6             1.1408     2.1932     0.0029 O.3     
   7 N7            -1.1445     2.1327     0.0191 N.2     
   8 C8             1.0467     3.6191     0.0115 C.3     
   9 H9             0.5123    -0.3556    -0.8948 H       
  10 H10            0.5293    -0.3651     0.8851 H       
  11 H11           -1.9435    -0.1821     0.9097 H       
  12 H12           -1.9605    -0.1726    -0.8702 H       
  13 H13           -1.3832    -4.2293    -0.0074 H       
  14 H14           -1.1577     3.1026     0.0244 H       
  15 H15            2.0481     4.0494     0.0042 H       
  16 H16            0.5015     3.9525    -0.8715 H       
  17 H17            0.5185     3.9430     0.9083 H       
@<TRIPOS>BOND
   1    1    2 1
   2    1    6 1
   3    1    7 2
   4    2    3 1
   5    2    9 1
   6    2   10 1
   7    3    4 1
   8    3   11 1
   9    3   12 1
  10    4    5 3
  11    5   13 1
  12    6    8 1
  13    7   14 1
  14    8   15 1
  15    8   16 1
  16    8   17 1

#	End of record

