#	Name: ASD08150757
#	Creating user name:	WinNT
#	Creation time:	15. 06. 2019 21:16

#	Modifying user name:	WinNT
#	Modification time:	15. 06. 2019 21:16

#	Program:	/corina/corina34_cracker 3.40 0067  02.08.2006

@<TRIPOS>MOLECULE
ASD08150757
  35   37    0    0    0
SMALL
NO_CHARGES


@<TRIPOS>ATOM
   1 C1            -0.0158     1.3166     0.0093 C.2     
   2 N2             0.0021    -0.0041     0.0020 N.2     
   3 C3             1.1389    -0.6846    -0.0125 C.2     
   4 C4             2.3424     0.0129    -0.0203 C.2     
   5 C5             2.3160     1.4195    -0.0125 C.2     
   6 N6             1.1170     2.0723     0.0025 N.am    
   7 S7            -1.3640     2.4676     0.0210 S.3     
   8 C8             0.9184     3.4310     0.0118 C.2     
   9 C9            -0.3177     3.8979     0.0246 C.2     
  10 O10            3.3591     2.0525    -0.0191 O.2     
  11 C11            2.0926     4.3755     0.0063 C.3     
  12 C12            3.6331    -0.7148    -0.0361 C.ar    
  13 C13            4.4825    -0.6087    -1.1369 C.ar    
  14 C14            5.6832    -1.2882    -1.1469 C.ar    
  15 C15            6.0455    -2.0750    -0.0656 C.ar    
  16 C16            5.2048    -2.1840     1.0302 C.ar    
  17 C17            4.0048    -1.5034     1.0523 C.ar    
  18 F18            7.2222    -2.7385    -0.0800 F       
  19 C19            1.1282    -2.1916    -0.0200 C.3     
  20 C20            0.5278    -2.7039     1.2907 C.3     
  21 N21            0.3215    -2.6686    -1.1460 N.2     
  22 N22            0.2625    -3.7687    -1.3689 N.1     
  23 N23            0.2036    -4.8688    -1.5918 N.pl3   
  24 H24           -0.6255     4.9331     0.0312 H       
  25 H25            2.3664     4.6089    -1.0227 H       
  26 H26            1.8226     5.2939     0.5276 H       
  27 H27            2.9382     3.9070     0.5099 H       
  28 H28            4.2008     0.0041    -1.9804 H       
  29 H29            6.3416    -1.2070    -1.9992 H       
  30 H30            5.4912    -2.7991     1.8704 H       
  31 H31            3.3523    -1.5851     1.9090 H       
  32 H32            2.1484    -2.5617    -0.1214 H       
  33 H33           -0.4925    -2.3338     1.3921 H       
  34 H34            0.5200    -3.7938     1.2853 H       
  35 H35            1.1280    -2.3489     2.1285 H       
@<TRIPOS>BOND
   1    1    2 2
   2    1    6 1
   3    1    7 1
   4    2    3 1
   5    3    4 2
   6    3   19 1
   7    4    5 1
   8    4   12 1
   9    5    6 am
  10    5   10 2
  11    6    8 1
  12    7    9 1
  13    8    9 2
  14    8   11 1
  15    9   24 1
  16   11   25 1
  17   11   26 1
  18   11   27 1
  19   12   13 ar
  20   12   17 ar
  21   13   14 ar
  22   13   28 1
  23   14   15 ar
  24   14   29 1
  25   15   16 ar
  26   15   18 1
  27   16   17 ar
  28   16   30 1
  29   17   31 1
  30   19   20 1
  31   19   21 1
  32   19   32 1
  33   20   33 1
  34   20   34 1
  35   20   35 1
  36   21   22 2
  37   22   23 2

#	End of record

