#	Name: ASD04170016
#	Creating user name:	WinNT
#	Creation time:	15. 06. 2019 20:48

#	Modifying user name:	WinNT
#	Modification time:	15. 06. 2019 20:48

#	Program:	/corina/corina34_cracker 3.40 0067  02.08.2006

@<TRIPOS>MOLECULE
ASD04170016
  39   41    0    0    0
SMALL
NO_CHARGES


@<TRIPOS>ATOM
   1 O1             0.0507     0.0484     0.7151 O.2     
   2 C2             0.0192     1.2476     0.5189 C.2     
   3 C3             1.2714     1.9855     0.2481 C.ar    
   4 C4             1.2571     3.3774     0.1487 C.ar    
   5 C5             2.4293     4.0600    -0.1042 C.ar    
   6 C6             3.6168     3.3676    -0.2593 C.ar    
   7 C7             3.6378     1.9873    -0.1624 C.ar    
   8 C8             2.4742     1.2933     0.0963 C.ar    
   9 C9             2.4989    -0.2098     0.2015 C.3     
  10 N10           -1.1578     1.9037     0.5429 N.am    
  11 C11           -2.3993     1.1715     0.8053 C.3     
  12 C12           -2.6093     1.0427     2.3156 C.3     
  13 N13           -3.8665     1.6867     2.7039 N.4     
  14 C14           -5.0029     1.0380     2.0456 C.3     
  15 C15           -4.8723     1.1673     0.5263 C.3     
  16 C16           -3.5850     1.9377     0.2042 C.3     
  17 C17           -3.6636     3.3139     0.8780 C.3     
  18 C18           -3.8332     3.1162     2.3860 C.3     
  19 H19            0.3306     3.9191     0.2692 H       
  20 H20            2.4196     5.1372    -0.1817 H       
  21 H21            4.5315     3.9066    -0.4571 H       
  22 H22            4.5682     1.4527    -0.2848 H       
  23 H23            2.5640    -0.4996     1.2503 H       
  24 H24            1.5868    -0.6194    -0.2326 H       
  25 H25            3.3636    -0.5976    -0.3370 H       
  26 H26           -1.1830     2.8606     0.3864 H       
  27 H27           -2.3393     0.1789     0.3589 H       
  28 H28           -2.6444    -0.0123     2.5873 H       
  29 H29           -1.7812     1.5217     2.8381 H       
  30 H30           -3.9789     1.5916     3.7021 H       
  31 H31           -5.0247    -0.0171     2.3182 H       
  32 H32           -5.9285     1.5130     2.3707 H       
  33 H33           -4.8261     0.1750     0.0779 H       
  34 H34           -5.7311     1.7095     0.1307 H       
  35 H35           -3.4634     2.0357    -0.8746 H       
  36 H36           -2.7459     3.8689     0.6833 H       
  37 H37           -4.5170     3.8655     0.4837 H       
  38 H38           -4.7650     3.5803     2.7091 H       
  39 H39           -2.9983     3.5835     2.9082 H       
@<TRIPOS>BOND
   1    1    2 2
   2    2    3 1
   3    2   10 am
   4    3    4 ar
   5    3    8 ar
   6    4    5 ar
   7    4   19 1
   8    5    6 ar
   9    5   20 1
  10    6    7 ar
  11    6   21 1
  12    7    8 ar
  13    7   22 1
  14    8    9 1
  15    9   23 1
  16    9   24 1
  17    9   25 1
  18   10   11 1
  19   10   26 1
  20   11   12 1
  21   11   16 1
  22   11   27 1
  23   12   13 1
  24   12   28 1
  25   12   29 1
  26   13   14 1
  27   13   18 1
  28   13   30 1
  29   14   15 1
  30   14   31 1
  31   14   32 1
  32   15   16 1
  33   15   33 1
  34   15   34 1
  35   16   17 1
  36   16   35 1
  37   17   18 1
  38   17   36 1
  39   17   37 1
  40   18   38 1
  41   18   39 1

#	End of record

