#	Name: ASD01884012
#	Creating user name:	WinNT
#	Creation time:	15. 06. 2019 19:47

#	Modifying user name:	WinNT
#	Modification time:	15. 06. 2019 19:47

#	Program:	/corina/corina34_cracker 3.40 0067  02.08.2006

@<TRIPOS>MOLECULE
ASD01884012
  39   42    0    0    0
SMALL
NO_CHARGES


@<TRIPOS>ATOM
   1 C1             0.1360     1.6471    -0.0759 C.3     
   2 C2             0.3238     0.1287    -0.2655 C.3     
   3 C3             1.7811    -0.3187    -0.1686 C.2     
   4 C4             2.6076     0.4892     0.7625 C.ar    
   5 C5             3.6349    -0.0789     1.5045 C.ar    
   6 C6             4.3690     0.7140     2.3656 C.ar    
   7 C7             4.0802     2.0628     2.4863 C.ar    
   8 C8             3.0621     2.6363     1.7480 C.ar    
   9 C9             2.3184     1.8587     0.8761 C.ar    
  10 O10            1.3333     2.4069     0.1209 O.3     
  11 C11           -0.2888     0.6788     1.0267 C.3     
  12 C12           -0.9421     2.3252    -0.8814 C.2     
  13 O13           -1.3107     1.8407    -1.9305 O.2     
  14 N14           -1.4968     3.4700    -0.4362 N.am    
  15 C15           -2.4269     4.1514    -1.2289 C.ar    
  16 C16           -3.3182     3.4408    -2.0222 C.ar    
  17 C17           -4.2658     5.4988    -2.7970 C.ar    
  18 C18           -2.4645     5.5395    -1.2198 C.ar    
  19 C19           -4.2350     4.1163    -2.8036 C.ar    
  20 C20           -3.3837     6.2091    -2.0035 C.ar    
  21 C21           -5.2668     6.2326    -3.6516 C.3     
  22 N22            2.2547    -1.3177    -0.8410 N.2     
  23 O23            1.4111    -2.0479    -1.7129 O.3     
  24 H24           -0.3038    -0.4015    -0.9818 H       
  25 H25            3.8579    -1.1314     1.4095 H       
  26 H26            5.1703     0.2806     2.9457 H       
  27 H27            4.6573     2.6738     3.1647 H       
  28 H28            2.8468     3.6896     1.8509 H       
  29 H29            0.3235     0.6435     1.9278 H       
  30 H30           -1.3576     0.5291     1.1795 H       
  31 H31           -1.2512     3.8215     0.4339 H       
  32 H32           -3.2942     2.3610    -2.0283 H       
  33 H33           -1.7759     6.0949    -0.6004 H       
  34 H34           -4.9284     3.5642    -3.4207 H       
  35 H35           -3.4100     7.2888    -2.0008 H       
  36 H36           -6.1832     6.3909    -3.0830 H       
  37 H37           -4.8531     7.1961    -3.9495 H       
  38 H38           -5.4881     5.6418    -4.5404 H       
  39 H39            1.8540    -2.7752    -2.1711 H       
@<TRIPOS>BOND
   1    1    2 1
   2    1   10 1
   3    1   11 1
   4    1   12 1
   5    2    3 1
   6    2   11 1
   7    2   24 1
   8    3    4 1
   9    3   22 2
  10    4    5 ar
  11    4    9 ar
  12    5    6 ar
  13    5   25 1
  14    6    7 ar
  15    6   26 1
  16    7    8 ar
  17    7   27 1
  18    8    9 ar
  19    8   28 1
  20    9   10 1
  21   11   29 1
  22   11   30 1
  23   12   13 2
  24   12   14 am
  25   14   15 1
  26   14   31 1
  27   15   16 ar
  28   15   18 ar
  29   16   19 ar
  30   16   32 1
  31   17   19 ar
  32   17   20 ar
  33   17   21 1
  34   18   20 ar
  35   18   33 1
  36   19   34 1
  37   20   35 1
  38   21   36 1
  39   21   37 1
  40   21   38 1
  41   22   23 1
  42   23   39 1

#	End of record

