#	Name: ASD05380007
#	Creating user name:	WinNT
#	Creation time:	15. 06. 2019 20:59

#	Modifying user name:	WinNT
#	Modification time:	15. 06. 2019 20:59

#	Program:	/corina/corina34_cracker 3.40 0067  02.08.2006

@<TRIPOS>MOLECULE
ASD05380007
  57   60    0    0    0
SMALL
NO_CHARGES


@<TRIPOS>ATOM
   1 C1            -0.1521     1.5353    -0.4226 C.ar    
   2 C2             0.0165     0.2200     0.0654 C.ar    
   3 C3             0.9439     2.2459    -0.9069 C.ar    
   4 C4             2.1895     1.6565    -0.9057 C.ar    
   5 C5             2.3587     0.3640    -0.4274 C.ar    
   6 C6             1.2886    -0.3550     0.0565 C.ar    
   7 C7             0.7686     3.6487    -1.4287 C.3     
   8 N8            -1.0650    -0.4524     0.5325 N.2     
   9 C9            -2.2478     0.0829     0.5415 C.2     
  10 N10           -2.5023     1.3416     0.0919 N.am    
  11 C11           -1.5030     2.1146    -0.3935 C.2     
  12 C12           -3.8090     1.8437     0.1366 C.ar    
  13 C13           -4.6670     1.6472    -0.9375 C.ar    
  14 C14           -4.2512     2.5340     1.2574 C.ar    
  15 C15           -5.5405     3.0275     1.2986 C.ar    
  16 C16           -6.3909     2.8343     0.2255 C.ar    
  17 C17           -5.9552     2.1431    -0.8901 C.ar    
  18 C18           -3.3974    -0.7314     1.0768 C.3     
  19 N19           -3.2099    -2.1383     0.7141 N.am    
  20 C20           -4.2758    -2.9575     0.6188 C.2     
  21 O21           -4.1035    -4.2505     0.2855 O.3     
  22 C22           -4.6882    -1.3238     3.1323 C.3     
  23 C23           -3.4497    -0.6000     2.6002 C.3     
  24 C24           -5.2962    -5.0743     0.2017 C.3     
  25 C25           -4.9101    -6.4800    -0.1804 C.ar    
  26 C26           -4.6187    -7.4079     0.8020 C.ar    
  27 C27           -4.8527    -6.8431    -1.5129 C.ar    
  28 C28           -4.4985    -8.1325    -1.8634 C.ar    
  29 C29           -4.2012    -9.0587    -0.8812 C.ar    
  30 C30           -4.2644    -8.6973     0.4515 C.ar    
  31 O31           -5.3924    -2.5292     0.8338 O.2     
  32 O32           -1.7161     3.2424    -0.7991 O.2     
  33 H33            3.0414     2.2044    -1.2805 H       
  34 H34            3.3419    -0.0828    -0.4346 H       
  35 H35            1.4326    -1.3593     0.4267 H       
  36 H36            0.7876     4.3513    -0.5956 H       
  37 H37            1.5780     3.8830    -2.1201 H       
  38 H38           -0.1867     3.7265    -1.9479 H       
  39 H39           -4.3273     1.1074    -1.8090 H       
  40 H40           -3.5877     2.6846     2.0961 H       
  41 H41           -5.8849     3.5645     2.1700 H       
  42 H42           -7.3989     3.2205     0.2604 H       
  43 H43           -6.6216     1.9942    -1.7269 H       
  44 H44           -4.3312    -0.3671     0.6485 H       
  45 H45           -2.3185    -2.4803     0.5424 H       
  46 H46           -5.5836    -0.8787     2.6984 H       
  47 H47           -4.6380    -2.3780     2.8600 H       
  48 H48           -4.7254    -1.2302     4.2177 H       
  49 H49           -2.5543    -1.0451     3.0342 H       
  50 H50           -3.4999     0.4542     2.8725 H       
  51 H51           -5.7987    -5.0857     1.1689 H       
  52 H52           -5.9685    -4.6646    -0.5522 H       
  53 H53           -4.6675    -7.1254     1.8432 H       
  54 H54           -5.0850    -6.1194    -2.2803 H       
  55 H55           -4.4543    -8.4163    -2.9045 H       
  56 H56           -3.9248   -10.0662    -1.1550 H       
  57 H57           -4.0322    -9.4210     1.2189 H       
@<TRIPOS>BOND
   1    1    2 ar
   2    1    3 ar
   3    1   11 1
   4    2    8 1
   5    2    6 ar
   6    3    4 ar
   7    3    7 1
   8    4    5 ar
   9    4   33 1
  10    5    6 ar
  11    5   34 1
  12    6   35 1
  13    7   36 1
  14    7   37 1
  15    7   38 1
  16    8    9 2
  17    9   10 1
  18    9   18 1
  19   10   11 am
  20   10   12 1
  21   11   32 2
  22   12   13 ar
  23   12   14 ar
  24   13   17 ar
  25   13   39 1
  26   14   15 ar
  27   14   40 1
  28   15   16 ar
  29   15   41 1
  30   16   17 ar
  31   16   42 1
  32   17   43 1
  33   18   19 1
  34   18   23 1
  35   18   44 1
  36   19   20 am
  37   19   45 1
  38   20   21 1
  39   20   31 2
  40   21   24 1
  41   22   23 1
  42   22   46 1
  43   22   47 1
  44   22   48 1
  45   23   49 1
  46   23   50 1
  47   24   25 1
  48   24   51 1
  49   24   52 1
  50   25   26 ar
  51   25   27 ar
  52   26   30 ar
  53   26   53 1
  54   27   28 ar
  55   27   54 1
  56   28   29 ar
  57   28   55 1
  58   29   30 ar
  59   29   56 1
  60   30   57 1

#	End of record

