#	Name: ASD05143288
#	Creating user name:	WinNT
#	Creation time:	15. 06. 2019 20:57

#	Modifying user name:	WinNT
#	Modification time:	15. 06. 2019 20:57

#	Program:	/corina/corina34_cracker 3.40 0067  02.08.2006

@<TRIPOS>MOLECULE
ASD05143288
  45   47    0    0    0
SMALL
NO_CHARGES


@<TRIPOS>ATOM
   1 C1            -0.2395     1.4500     0.0958 C.2     
   2 N2            -0.0202     0.1943    -0.2393 N.2     
   3 S3            -1.5515    -0.5395    -0.3021 S.3     
   4 C4            -2.4121     0.8891     0.1282 C.2     
   5 N5            -1.4919     1.8134     0.2934 N.2     
   6 N6            -3.7799     1.0323     0.2734 N.pl3   
   7 C7            -4.3095     2.2314     0.7604 C.ar    
   8 C8            -5.6057     2.6049     0.4290 C.ar    
   9 C9            -6.1262     3.7896     0.9114 C.ar    
  10 C10           -5.3575     4.6046     1.7239 C.ar    
  11 C11           -4.0657     4.2351     2.0553 C.ar    
  12 C12           -3.5424     3.0483     1.5812 C.ar    
  13 C13            1.1930    -0.3977    -0.4863 C.ar    
  14 C14            1.5880    -1.5171     0.2482 C.ar    
  15 C15            2.0329     0.1144    -1.4767 C.ar    
  16 C16            3.2511    -0.4833    -1.7217 C.ar    
  17 C17            3.6427    -1.5930    -0.9850 C.ar    
  18 C18            2.8079    -2.1089    -0.0030 C.ar    
  19 C19            0.8760     2.4127     0.2503 C.ar    
  20 C20            0.6882     3.7582    -0.0649 C.ar    
  21 C21            2.1162     1.9781     0.7169 C.ar    
  22 C22            3.1512     2.8795     0.8592 C.ar    
  23 C23            2.9603     4.2121     0.5403 C.ar    
  24 C24            1.7308     4.6501     0.0815 C.ar    
  25 O25            4.8442    -2.1796    -1.2299 O.3     
  26 C26            5.1845    -3.3175    -0.4353 C.3     
  27 Cl27          -6.0149     6.0935     2.3280 Cl      
  28 H28           -4.3719     0.3011     0.0375 H       
  29 H29           -6.2057     1.9696    -0.2056 H       
  30 H30           -7.1339     4.0806     0.6540 H       
  31 H31           -3.4680     4.8732     2.6893 H       
  32 H32           -2.5343     2.7604     1.8402 H       
  33 H33            0.9393    -1.9188     1.0125 H       
  34 H34            1.7289     0.9773    -2.0505 H       
  35 H35            3.9014    -0.0880    -2.4880 H       
  36 H36            3.1161    -2.9723     0.5679 H       
  37 H37           -0.2711     4.1013    -0.4231 H       
  38 H38            2.2663     0.9381     0.9668 H       
  39 H39            4.1121     2.5441     1.2205 H       
  40 H40            3.7732     4.9140     0.6536 H       
  41 H41            1.5879     5.6916    -0.1661 H       
  42 H42            6.1658    -3.6876    -0.7323 H       
  43 H43            5.2067    -3.0326     0.6165 H       
  44 H44            4.4407    -4.1002    -0.5842 H       
  45 Br45          11.1658    11.0935     7.6893 Br      
@<TRIPOS>BOND
   1    1    2 2
   2    1   19 1
   3    1    5 1
   4    2    3 1
   5    2   13 1
   6    3    4 1
   7    4    5 2
   8    4    6 1
   9    6    7 1
  10    6   28 1
  11    7    8 ar
  12    7   12 ar
  13    8    9 ar
  14    8   29 1
  15    9   10 ar
  16    9   30 1
  17   10   11 ar
  18   10   27 1
  19   11   12 ar
  20   11   31 1
  21   12   32 1
  22   13   14 ar
  23   13   15 ar
  24   14   18 ar
  25   14   33 1
  26   15   16 ar
  27   15   34 1
  28   16   17 ar
  29   16   35 1
  30   17   18 ar
  31   17   25 1
  32   18   36 1
  33   19   20 ar
  34   19   21 ar
  35   20   24 ar
  36   20   37 1
  37   21   22 ar
  38   21   38 1
  39   22   23 ar
  40   22   39 1
  41   23   24 ar
  42   23   40 1
  43   24   41 1
  44   25   26 1
  45   26   42 1
  46   26   43 1
  47   26   44 1

#	End of record

