#	Name: ASD01916307
#	Creating user name:	WinNT
#	Creation time:	15. 06. 2019 20:07

#	Modifying user name:	WinNT
#	Modification time:	15. 06. 2019 20:07

#	Program:	/corina/corina34_cracker 3.40 0067  02.08.2006

@<TRIPOS>MOLECULE
ASD01916307
  42   43    0    0    0
SMALL
NO_CHARGES


@<TRIPOS>ATOM
   1 C1            -0.0167     1.3817     0.0096 C.ar    
   2 C2             0.0021    -0.0041     0.0020 C.ar    
   3 C3             1.2064    -0.6809    -0.0132 C.ar    
   4 C4             2.4058     0.0359    -0.0208 C.ar    
   5 C5             2.3775     1.4336    -0.0130 C.ar    
   6 C6             1.1683     2.0961     0.0022 C.ar    
   7 F7            -1.1593    -0.6943     0.0099 F       
   8 C8             3.6583    -0.6581    -0.0361 C.1     
   9 C9             4.6852    -1.2270    -0.0486 C.1     
  10 C10            5.9377    -1.9210    -0.0638 C.ar    
  11 C11            7.1523    -1.2167    -0.0717 C.ar    
  12 N12            8.2829    -1.8941    -0.0858 N.ar    
  13 C13            8.2830    -3.2204    -0.0925 C.ar    
  14 N14            7.1585    -3.9236    -0.0859 N.ar    
  15 C15            5.9846    -3.3243    -0.0655 C.ar    
  16 C16            9.5798    -3.9389    -0.1084 C.2     
  17 O17           10.6212    -3.3128    -0.1150 O.2     
  18 N18            9.6035    -5.2864    -0.1154 N.am    
  19 C19           10.8849    -5.9964    -0.1311 C.3     
  20 C20           10.7031    -7.3902     0.4732 C.3     
  21 O21            9.8339    -8.1606    -0.3592 O.3     
  22 C22           12.0629    -8.0847     0.5716 C.3     
  23 C23           10.0923    -7.2646     1.8704 C.3     
  24 C24           11.3784    -6.1263    -1.5735 C.3     
  25 H25           -0.9607     1.9063     0.0170 H       
  26 H26            1.2208    -1.7608    -0.0187 H       
  27 H27            3.3010     1.9934    -0.0185 H       
  28 H28            1.1460     3.1759     0.0082 H       
  29 H29            7.1601    -0.1367    -0.0666 H       
  30 H30            5.0731    -3.9035    -0.0603 H       
  31 H31            8.7722    -5.7862    -0.1101 H       
  32 H32           11.6162    -5.4391     0.4543 H       
  33 H33           10.1587    -8.2812    -1.2620 H       
  34 H34           12.7259    -7.4970     1.2066 H       
  35 H35           11.9334    -9.0776     1.0021 H       
  36 H36           12.4980    -8.1741    -0.4237 H       
  37 H37            9.1236    -6.7698     1.8003 H       
  38 H38            9.9628    -8.2576     2.3009 H       
  39 H39           10.7553    -6.6769     2.5053 H       
  40 H40           11.5079    -5.1333    -2.0040 H       
  41 H41           12.3318    -6.6545    -1.5851 H       
  42 H42           10.6471    -6.6835    -2.1589 H       
@<TRIPOS>BOND
   1    1    2 ar
   2    1    6 ar
   3    1   25 1
   4    2    3 ar
   5    2    7 1
   6    3    4 ar
   7    3   26 1
   8    4    5 ar
   9    4    8 1
  10    5    6 ar
  11    5   27 1
  12    6   28 1
  13    8    9 3
  14    9   10 1
  15   10   11 ar
  16   10   15 ar
  17   11   12 ar
  18   11   29 1
  19   12   13 ar
  20   13   14 ar
  21   13   16 1
  22   14   15 ar
  23   15   30 1
  24   16   17 2
  25   16   18 am
  26   18   19 1
  27   18   31 1
  28   19   20 1
  29   19   24 1
  30   19   32 1
  31   20   21 1
  32   20   22 1
  33   20   23 1
  34   21   33 1
  35   22   34 1
  36   22   35 1
  37   22   36 1
  38   23   37 1
  39   23   38 1
  40   23   39 1
  41   24   40 1
  42   24   41 1
  43   24   42 1

#	End of record

