#	Name: ASD01148167
#	Creating user name:	WinNT
#	Creation time:	15. 06. 2019 19:02

#	Modifying user name:	WinNT
#	Modification time:	15. 06. 2019 19:02

#	Program:	/corina/corina34_cracker 3.40 0067  02.08.2006

@<TRIPOS>MOLECULE
ASD01148167
  45   48    0    0    0
SMALL
NO_CHARGES


@<TRIPOS>ATOM
   1 C1            -0.0167     1.3781     0.0096 C.ar    
   2 C2             0.0021    -0.0041     0.0020 C.ar    
   3 C3             1.2084    -0.6789    -0.0132 C.ar    
   4 C4             2.3960     0.0285    -0.0212 C.ar    
   5 C5             2.3773     1.4107    -0.0145 C.ar    
   6 C6             1.1710     2.0855     0.0021 C.ar    
   7 C7             3.6720     2.1819    -0.0228 C.3     
   8 O8             4.6967     1.4625    -0.7383 O.3     
   9 C9             3.5433     3.4713    -0.8686 C.3     
  10 C10            4.0468     3.0252    -2.2282 C.2     
  11 N11            4.6717     1.9053    -2.0808 N.2     
  12 C12            3.8545     3.7473    -3.5012 C.ar    
  13 C13            4.3730     3.2220    -4.6876 C.ar    
  14 C14            3.1489     4.9531    -3.5207 C.ar    
  15 C15            2.9697     5.6264    -4.7078 C.ar    
  16 C16            3.4932     5.1041    -5.8932 C.ar    
  17 C17            4.1937     3.8954    -5.8746 C.ar    
  18 C18            3.3007     5.8268    -7.1673 C.2     
  19 O19            2.6870     6.8758    -7.1843 O.2     
  20 N20            3.8057     5.3230    -8.3108 N.am    
  21 C21            4.1233     2.5042     1.4032 C.3     
  22 F22            4.2976     1.3140     2.1174 F       
  23 F23            5.3334     3.2050     1.3622 F       
  24 F24            3.1514     3.2884     2.0338 F       
  25 C25            3.6249     6.0021    -9.5081 C.ar    
  26 N26            4.1278     5.4927   -10.6223 N.ar    
  27 N27            2.9491     7.1409    -9.5093 N.ar    
  28 C28            2.7586     7.8131   -10.6325 C.ar    
  29 C29            3.2763     7.3115   -11.8165 C.ar    
  30 C30            3.9737     6.1141   -11.7797 C.ar    
  31 H31           -0.9592     1.9054     0.0170 H       
  32 H32           -0.9258    -0.5567     0.0083 H       
  33 H33            1.2231    -1.7588    -0.0184 H       
  34 H34            3.3386    -0.4987    -0.0324 H       
  35 H35            1.1563     3.1654     0.0069 H       
  36 H36            2.5035     3.7932    -0.9276 H       
  37 H37            4.1725     4.2639    -0.4639 H       
  38 H38            4.9149     2.2879    -4.6732 H       
  39 H39            2.7439     5.3567    -2.6045 H       
  40 H40            2.4240     6.5583    -4.7230 H       
  41 H41            4.5984     3.4917    -6.7909 H       
  42 H42            4.2956     4.4858    -8.2973 H       
  43 H43            2.2063     8.7411   -10.6272 H       
  44 H44            3.1353     7.8396   -12.7480 H       
  45 H45            4.3901     5.6961   -12.6843 H       
@<TRIPOS>BOND
   1    1    2 ar
   2    1    6 ar
   3    1   31 1
   4    2    3 ar
   5    2   32 1
   6    3    4 ar
   7    3   33 1
   8    4    5 ar
   9    4   34 1
  10    5    6 ar
  11    5    7 1
  12    6   35 1
  13    7    8 1
  14    7    9 1
  15    7   21 1
  16    8   11 1
  17    9   10 1
  18    9   36 1
  19    9   37 1
  20   10   11 2
  21   10   12 1
  22   12   13 ar
  23   12   14 ar
  24   13   17 ar
  25   13   38 1
  26   14   15 ar
  27   14   39 1
  28   15   16 ar
  29   15   40 1
  30   16   17 ar
  31   16   18 1
  32   17   41 1
  33   18   19 2
  34   18   20 am
  35   20   25 1
  36   20   42 1
  37   21   22 1
  38   21   23 1
  39   21   24 1
  40   25   26 ar
  41   25   27 ar
  42   26   30 ar
  43   27   28 ar
  44   28   29 ar
  45   28   43 1
  46   29   30 ar
  47   29   44 1
  48   30   45 1

#	End of record

