#	Name: ASD00990022
#	Creating user name:	WinNT
#	Creation time:	15. 06. 2019 18:54

#	Modifying user name:	WinNT
#	Modification time:	15. 06. 2019 18:54

#	Program:	/corina/corina34_cracker 3.40 0067  02.08.2006

@<TRIPOS>MOLECULE
ASD00990022
  21   22    0    0    0
SMALL
NO_CHARGES


@<TRIPOS>ATOM
   1 C1            -0.0184     1.5028     0.0103 C.2     
   2 C2             0.0021    -0.0041     0.0020 C.3     
   3 O3             1.0197     2.1211     0.0037 O.2     
   4 O4            -1.1898     2.1580     0.0194 O.3     
   5 S5             3.6661    -1.2462     0.6644 S.3     
   6 C6             2.0465    -0.6987     1.1283 C.2     
   7 N7             1.3897    -0.4735    -0.0138 N.am    
   8 C8             2.0469    -0.6933    -1.2110 C.ar    
   9 C9             3.3623    -1.1392    -1.0750 C.ar    
  10 C10            1.5509    -0.5230    -2.5123 C.ar    
  11 C11            2.3418    -0.7890    -3.6070 C.ar    
  12 C12            3.6451    -1.2308    -3.4499 C.ar    
  13 C13            4.1542    -1.4048    -2.1773 C.ar    
  14 O14            1.6181    -0.5567     2.2588 O.2     
  15 Cl15           1.6977    -0.5686    -5.2039 Cl      
  16 H16           -0.4983    -0.3791     0.8948 H       
  17 H17           -0.5153    -0.3696    -0.8850 H       
  18 H18           -1.1523     3.1243     0.0245 H       
  19 H19            0.5371    -0.1796    -2.6566 H       
  20 H20            4.2580    -1.4376    -4.3148 H       
  21 H21            5.1691    -1.7490    -2.0435 H       
@<TRIPOS>BOND
   1    1    2 1
   2    1    3 2
   3    1    4 1
   4    2    7 1
   5    2   16 1
   6    2   17 1
   7    4   18 1
   8    5    6 1
   9    5    9 1
  10    6    7 am
  11    6   14 2
  12    7    8 1
  13    8    9 ar
  14    8   10 ar
  15    9   13 ar
  16   10   11 ar
  17   10   19 1
  18   11   12 ar
  19   11   15 1
  20   12   13 ar
  21   12   20 1
  22   13   21 1

#	End of record

