#	Name: ASD03491007
#	Creating user name:	WinNT
#	Creation time:	15. 06. 2019 20:42

#	Modifying user name:	WinNT
#	Modification time:	15. 06. 2019 20:42

#	Program:	/corina/corina34_cracker 3.40 0067  02.08.2006

@<TRIPOS>MOLECULE
ASD03491007
  78   81    0    0    0
SMALL
NO_CHARGES


@<TRIPOS>ATOM
   1 C1            -0.2085     0.7984    -0.5641 C.ar    
   2 C2             0.3209    -0.4477    -0.8701 C.ar    
   3 C3             1.6628    -0.7129    -0.6148 C.ar    
   4 C4             2.4675     0.2735    -0.0537 C.ar    
   5 C5             1.9280     1.5177     0.2490 C.ar    
   6 C6             0.5952     1.7757    -0.0064 C.ar    
   7 C7             0.0153     3.1270     0.3234 C.3     
   8 N8             3.8174     0.0130     0.2059 N.am    
   9 C9             4.7254     1.0045     0.1109 C.2     
  10 O10            4.3863     2.1029    -0.2803 O.2     
  11 C11            7.0987     1.8629     0.5294 C.ar    
  12 C12            8.5260     1.6117     0.7432 C.ar    
  13 C13            9.4170     2.7095     0.7790 C.ar    
  14 C14            8.9133     4.0180     0.6092 C.ar    
  15 C15            7.5615     4.2286     0.4093 C.ar    
  16 C16            6.6642     3.1804     0.3619 C.ar    
  17 C17            9.0201     0.3148     0.9118 C.ar    
  18 C18           10.3569     0.1221     1.1091 C.ar    
  19 C19           11.2356     1.2001     1.1452 C.ar    
  20 C20           10.7856     2.4767     0.9833 C.ar    
  21 O21            9.7603     5.0739     0.6428 O.3     
  22 C22            9.1876     6.3709     0.4645 C.3     
  23 C23           10.2905     7.4292     0.5327 C.3     
  24 N24           11.2102     7.2516    -0.5989 N.3     
  25 C25           12.1410     8.3847    -0.7041 C.3     
  26 C26           13.1171     8.1310    -1.8560 C.3     
  27 O27           12.3787     7.9229    -3.0629 O.3     
  28 C28           11.4629     6.8265    -2.9958 C.3     
  29 C29           10.4700     7.0670    -1.8555 C.3     
  30 C30            1.1052     4.0170     0.9240 C.3     
  31 C31           -0.5264     3.7747    -0.9526 C.3     
  32 C32           -1.1219     2.9612     1.3335 C.3     
  33 N33           -0.4941    -1.4362    -1.4341 N.am    
  34 S34           -1.7221    -1.0107    -2.4604 S.o2    
  35 O35           -2.2510    -2.2515    -2.9075 O.2     
  36 O36           -2.5147    -0.1069    -1.7026 O.2     
  37 C37           -0.8943    -0.1439    -3.8220 C.3     
  38 C38            6.1453     0.7528     0.4861 C.2     
  39 O39            6.5120    -0.3742     0.7561 O.2     
  40 O40            2.1862    -1.9331    -0.9127 O.3     
  41 C41            2.7392    -2.1004    -2.2197 C.3     
  42 H42           -1.2488     1.0065    -0.7660 H       
  43 H43            2.5516     2.2842     0.6850 H       
  44 H44            4.0998    -0.8811     0.4541 H       
  45 H45            7.1991     5.2380     0.2819 H       
  46 H46            5.6149     3.3814     0.2037 H       
  47 H47            8.3477    -0.5300     0.8864 H       
  48 H48           10.7374    -0.8803     1.2392 H       
  49 H49           12.2893     1.0230     1.3030 H       
  50 H50           11.4785     3.3046     1.0131 H       
  51 H51            8.6960     6.4206    -0.5071 H       
  52 H52            8.4566     6.5566     1.2514 H       
  53 H53            9.8442     8.4225     0.4858 H       
  54 H54           10.8399     7.3215     1.4679 H       
  55 H55           11.5805     9.2994    -0.8969 H       
  56 H56           12.6966     8.4871     0.2280 H       
  57 H57           13.7725     8.9939    -1.9744 H       
  58 H58           13.7151     7.2461    -1.6381 H       
  59 H59           10.9218     6.7460    -3.9386 H       
  60 H60           12.0128     5.9037    -2.8110 H       
  61 H61            9.8058     6.2075    -1.7639 H       
  62 H62            9.8827     7.9607    -2.0667 H       
  63 H63            1.9154     4.1351     0.2044 H       
  64 H64            0.6858     4.9944     1.1625 H       
  65 H65            1.4911     3.5556     1.8330 H       
  66 H66           -1.3029     3.1406    -1.3804 H       
  67 H67           -0.9458     4.7521    -0.7141 H       
  68 H68            0.2837     3.8928    -1.6722 H       
  69 H69           -0.7360     2.4998     2.2425 H       
  70 H70           -1.5413     3.9386     1.5720 H       
  71 H71           -1.8984     2.3272     0.9056 H       
  72 H72           -0.3394    -2.3704    -1.2239 H       
  73 H73           -0.1797    -0.8149    -4.2987 H       
  74 H74           -1.6363     0.1758    -4.5536 H       
  75 H75           -0.3694     0.7281    -3.4319 H       
  76 H76            1.9657    -1.9231    -2.9669 H       
  77 H77            3.5530    -1.3896    -2.3635 H       
  78 H78            3.1208    -3.1159    -2.3255 H       
@<TRIPOS>BOND
   1    1    2 ar
   2    1    6 ar
   3    1   42 1
   4    2    3 ar
   5    2   33 1
   6    3    4 ar
   7    3   40 1
   8    4    5 ar
   9    4    8 1
  10    5    6 ar
  11    5   43 1
  12    6    7 1
  13    7   30 1
  14    7   31 1
  15    7   32 1
  16    8    9 am
  17    8   44 1
  18    9   10 2
  19    9   38 1
  20   11   12 ar
  21   11   38 1
  22   11   16 ar
  23   12   13 ar
  24   12   17 ar
  25   13   14 ar
  26   13   20 ar
  27   14   15 ar
  28   14   21 1
  29   15   16 ar
  30   15   45 1
  31   16   46 1
  32   17   18 ar
  33   17   47 1
  34   18   19 ar
  35   18   48 1
  36   19   20 ar
  37   19   49 1
  38   20   50 1
  39   21   22 1
  40   22   23 1
  41   22   51 1
  42   22   52 1
  43   23   24 1
  44   23   53 1
  45   23   54 1
  46   24   25 1
  47   24   29 1
  48   25   26 1
  49   25   55 1
  50   25   56 1
  51   26   27 1
  52   26   57 1
  53   26   58 1
  54   27   28 1
  55   28   29 1
  56   28   59 1
  57   28   60 1
  58   29   61 1
  59   29   62 1
  60   30   63 1
  61   30   64 1
  62   30   65 1
  63   31   66 1
  64   31   67 1
  65   31   68 1
  66   32   69 1
  67   32   70 1
  68   32   71 1
  69   33   34 am
  70   33   72 1
  71   34   35 2
  72   34   36 2
  73   34   37 1
  74   37   73 1
  75   37   74 1
  76   37   75 1
  77   38   39 2
  78   40   41 1
  79   41   76 1
  80   41   77 1
  81   41   78 1

#	End of record

