#	Name: ASD08830236
#	Creating user name:	WinNT
#	Creation time:	15. 06. 2019 21:20

#	Modifying user name:	WinNT
#	Modification time:	15. 06. 2019 21:20

#	Program:	/corina/corina34_cracker 3.40 0067  02.08.2006

@<TRIPOS>MOLECULE
ASD08830236
  49   51    0    0    0
SMALL
NO_CHARGES


@<TRIPOS>ATOM
   1 C1             0.3533     1.1494    -0.1334 C.ar    
   2 C2             0.1377    -0.2922    -0.3287 C.2     
   3 C3            -1.1869    -0.9120     0.0351 C.3     
   4 O4             1.0257    -0.9821    -0.7825 O.2     
   5 C5            -0.6798     1.9457     0.3996 C.ar    
   6 C6             1.5753     1.7155    -0.4700 C.ar    
   7 C7             1.7730     3.0908    -0.2803 C.ar    
   8 C8             0.7223     3.8813     0.2522 C.ar    
   9 C9            -0.5038     3.2770     0.5890 C.ar    
  10 C10            2.9969     3.7010    -0.6087 C.ar    
  11 C11            3.1570     5.0385    -0.4120 C.ar    
  12 C12            2.1249     5.8142     0.1114 C.ar    
  13 C13            0.9262     5.2577     0.4404 C.ar    
  14 C14           -1.1475    -2.4119    -0.2641 C.3     
  15 N15           -2.4387    -3.0161     0.0905 N.3     
  16 C16           -3.4673    -2.6928    -0.9152 C.3     
  17 C17           -2.3254    -4.4867     0.1921 C.3     
  18 C18           -3.6940    -5.0235    -0.2961 C.3     
  19 C19           -4.0303    -4.0305    -1.4396 C.3     
  20 C20           -2.0770    -4.9028     1.6434 C.3     
  21 N21           -1.8438    -6.3518     1.7042 N.3     
  22 C22           -0.5002    -6.6898     1.2159 C.3     
  23 C23           -2.0527    -6.8620     3.0659 C.3     
  24 H24           -1.3808    -0.7582     1.0966 H       
  25 H25           -1.9793    -0.4455    -0.5503 H       
  26 H26           -1.6237     1.4901     0.6603 H       
  27 H27            2.3669     1.1020    -0.8742 H       
  28 H28           -1.3066     3.8750     0.9944 H       
  29 H29            3.8057     3.1115    -1.0145 H       
  30 H30            4.0977     5.5048    -0.6649 H       
  31 H31            2.2777     6.8733     0.2581 H       
  32 H32            0.1358     5.8725     0.8452 H       
  33 H33           -0.9536    -2.5657    -1.3256 H       
  34 H34           -0.3551    -2.8784     0.3212 H       
  35 H35           -4.2650    -2.1095    -0.4554 H       
  36 H36           -3.0202    -2.1316    -1.7357 H       
  37 H37           -1.5238    -4.8509    -0.4504 H       
  38 H38           -3.6011    -6.0406    -0.6769 H       
  39 H39           -4.4393    -4.9719     0.4976 H       
  40 H40           -5.1081    -3.9635    -1.5874 H       
  41 H41           -3.5310    -4.3231    -2.3634 H       
  42 H42           -1.2025    -4.3775     2.0273 H       
  43 H43           -2.9477    -4.6492     2.2482 H       
  44 H44            0.2476    -6.2336     1.8646 H       
  45 H45           -0.3735    -7.7724     1.2206 H       
  46 H46           -0.3777    -6.3140     0.2000 H       
  47 H47           -3.0778    -6.6596     3.3764 H       
  48 H48           -1.8735    -7.9370     3.0826 H       
  49 H49           -1.3619    -6.3678     3.7490 H       
@<TRIPOS>BOND
   1    1    2 1
   2    1    6 ar
   3    1    5 ar
   4    2    3 1
   5    2    4 2
   6    3   14 1
   7    3   24 1
   8    3   25 1
   9    5    9 ar
  10    5   26 1
  11    6    7 ar
  12    6   27 1
  13    7    8 ar
  14    7   10 ar
  15    8    9 ar
  16    8   13 ar
  17    9   28 1
  18   10   11 ar
  19   10   29 1
  20   11   12 ar
  21   11   30 1
  22   12   13 ar
  23   12   31 1
  24   13   32 1
  25   14   15 1
  26   14   33 1
  27   14   34 1
  28   15   16 1
  29   15   17 1
  30   16   19 1
  31   16   35 1
  32   16   36 1
  33   17   18 1
  34   17   20 1
  35   17   37 1
  36   18   19 1
  37   18   38 1
  38   18   39 1
  39   19   40 1
  40   19   41 1
  41   20   21 1
  42   20   42 1
  43   20   43 1
  44   21   22 1
  45   21   23 1
  46   22   44 1
  47   22   45 1
  48   22   46 1
  49   23   47 1
  50   23   48 1
  51   23   49 1

#	End of record

