#	Name: ASD03080155
#	Creating user name:	WinNT
#	Creation time:	15. 06. 2019 20:26

#	Modifying user name:	WinNT
#	Modification time:	15. 06. 2019 20:26

#	Program:	/corina/corina34_cracker 3.40 0067  02.08.2006

@<TRIPOS>MOLECULE
ASD03080155
  42   44    0    0    0
SMALL
NO_CHARGES


@<TRIPOS>ATOM
   1 C1            -0.0187     1.5296     0.0105 C.3     
   2 C2             0.0021    -0.0041     0.0020 C.3     
   3 C3             0.7699    -0.4897     1.2380 C.3     
   4 C4             2.1907     0.0797     1.1928 C.3     
   5 N5             2.3478     0.9014    -0.0152 N.3     
   6 C6             1.4239     2.0435    -0.0006 C.3     
   7 C7             0.7465    -0.4764    -1.2532 C.3     
   8 C8             2.1680     0.0924    -1.2286 C.3     
   9 N9            -1.3664    -0.5266     0.0216 N.am    
  10 C10           -1.5798    -1.8573     0.0181 C.2     
  11 C11           -2.9618    -2.3850     0.0379 C.ar    
  12 O12           -0.6368    -2.6240    -0.0014 O.2     
  13 C13           -3.1723    -3.7589     0.0341 C.ar    
  14 C14           -4.4845    -4.2307     0.0536 C.ar    
  15 C15           -5.5432    -3.3013     0.0762 C.ar    
  16 C16           -5.2384    -1.9436     0.0780 C.ar    
  17 N17           -3.9893    -1.5378     0.0647 N.ar    
  18 C18           -5.1190    -5.5496     0.0576 C.2     
  19 C19           -6.4421    -5.3266     0.0812 C.2     
  20 O20           -6.6893    -4.0056     0.0921 O.3     
  21 H21           -0.5425     1.8927    -0.8738 H       
  22 H22           -0.5255     1.8831     0.9084 H       
  23 H23            0.2661    -0.1432     2.1403 H       
  24 H24            0.8127    -1.5788     1.2367 H       
  25 H25            2.3643     0.6945     2.0760 H       
  26 H26            2.9100    -0.7389     1.1719 H       
  27 H27            1.5858     2.6536    -0.8892 H       
  28 H28            1.6026     2.6445     0.8911 H       
  29 H29            0.7891    -1.5655    -1.2645 H       
  30 H30            0.2260    -0.1202    -2.1422 H       
  31 H31            2.3254     0.7164    -2.1084 H       
  32 H32            2.8874    -0.7264    -1.2297 H       
  33 H33           -2.1190     0.0852     0.0372 H       
  34 H34           -2.3387    -4.4454     0.0161 H       
  35 H35           -6.0367    -1.2164     0.0952 H       
  36 H36           -4.6226    -6.5087     0.0438 H       
  37 H37           -7.1987    -6.0971     0.0895 H       
  38 C38            8.4372     8.7435     8.0234 C.3     
  39 H39            8.4520     7.6536     8.0174 H       
  40 H40            9.4598     9.1208     8.0156 H       
  41 H41            7.9100     9.1046     7.1403 H       
  42 H42            7.9270     9.0950     8.9202 H       
@<TRIPOS>BOND
   1    1    2 1
   2    1    6 1
   3    1   21 1
   4    1   22 1
   5    2    3 1
   6    2    7 1
   7    2    9 1
   8    3    4 1
   9    3   23 1
  10    3   24 1
  11    4    5 1
  12    4   25 1
  13    4   26 1
  14    5    6 1
  15    5    8 1
  16    6   27 1
  17    6   28 1
  18    7    8 1
  19    7   29 1
  20    7   30 1
  21    8   31 1
  22    8   32 1
  23    9   10 am
  24    9   33 1
  25   10   11 1
  26   10   12 2
  27   11   13 ar
  28   11   17 ar
  29   13   14 ar
  30   13   34 1
  31   14   15 ar
  32   14   18 1
  33   15   16 ar
  34   15   20 1
  35   16   17 ar
  36   16   35 1
  37   18   19 2
  38   18   36 1
  39   19   20 1
  40   19   37 1
  41   38   39 1
  42   38   40 1
  43   38   41 1
  44   38   42 1

#	End of record

