#	Name: ASD05313153
#	Creating user name:	WinNT
#	Creation time:	15. 06. 2019 20:58

#	Modifying user name:	WinNT
#	Modification time:	15. 06. 2019 20:58

#	Program:	/corina/corina34_cracker 3.40 0067  02.08.2006

@<TRIPOS>MOLECULE
ASD05313153
  43   46    0    0    0
SMALL
NO_CHARGES


@<TRIPOS>ATOM
   1 C1            -0.0853     1.0856     0.6957 C.2     
   2 C2             0.0530    -0.3913     0.4127 C.3     
   3 N3             0.9588     1.9512     0.7049 N.pl3   
   4 N4             1.4236    -0.6069    -0.0883 N.am    
   5 C5             2.5279     0.0839     0.5949 C.3     
   6 C6             2.3516     1.5987     0.4351 C.3     
   7 N7            -0.8636     3.0002     1.1564 N.2     
   8 N8            -1.1614     1.7599     0.9714 N.2     
   9 C9             0.4341     3.1713     1.0054 C.2     
  10 C10            1.1778     4.4428     1.1397 C.ar    
  11 C11            0.4990     5.6220     1.4539 C.ar    
  12 N12            2.4970     4.4662     0.9671 N.ar    
  13 N13            1.1679     6.7531     1.5729 N.ar    
  14 C14            2.4782     6.7708     1.3951 C.ar    
  15 C15            3.1562     5.6033     1.0885 C.ar    
  16 C16            1.6574    -1.4143    -1.1419 C.2     
  17 O17            2.7791    -1.5042    -1.6016 O.2     
  18 C18            0.5496    -2.1906    -1.7384 C.ar    
  19 C19            0.3185    -2.1387    -3.1141 C.ar    
  20 C20           -0.7165    -2.8658    -3.6644 C.ar    
  21 C21           -1.5251    -3.6451    -2.8558 C.ar    
  22 C22           -1.3015    -3.7009    -1.4918 C.ar    
  23 C23           -0.2660    -2.9830    -0.9294 C.ar    
  24 C24            1.1975    -1.2898    -3.9961 C.3     
  25 F25            0.7716    -1.4007    -5.3241 F       
  26 F26            1.1143     0.0463    -3.5897 F       
  27 F27            2.5224    -1.7269    -3.8932 F       
  28 C28           -2.6546    -4.4360    -3.4639 C.3     
  29 H29           -0.1023    -0.9616     1.3285 H       
  30 H30           -0.6714    -0.6947    -0.3431 H       
  31 H31            2.5189    -0.1739     1.6539 H       
  32 H32            3.4767    -0.2208     0.1533 H       
  33 H33            2.6103     1.8899    -0.5830 H       
  34 H34            3.0017     2.1175     1.1396 H       
  35 H35           -0.5711     5.6083     1.5988 H       
  36 H36            3.0219     7.6988     1.4931 H       
  37 H37            4.2270     5.6229     0.9488 H       
  38 H38           -0.8964    -2.8265    -4.7286 H       
  39 H39           -1.9362    -4.3111    -0.8663 H       
  40 H40           -0.0899    -3.0307     0.1350 H       
  41 H41           -2.2944    -5.4250    -3.7472 H       
  42 H42           -3.4600    -4.5374    -2.7364 H       
  43 H43           -3.0265    -3.9178    -4.3478 H       
@<TRIPOS>BOND
   1    1    2 1
   2    1    3 1
   3    1    8 2
   4    2    4 1
   5    2   29 1
   6    2   30 1
   7    3    6 1
   8    3    9 1
   9    4    5 1
  10    4   16 am
  11    5    6 1
  12    5   31 1
  13    5   32 1
  14    6   33 1
  15    6   34 1
  16    7    8 1
  17    7    9 2
  18    9   10 1
  19   10   11 ar
  20   10   12 ar
  21   11   13 ar
  22   11   35 1
  23   12   15 ar
  24   13   14 ar
  25   14   15 ar
  26   14   36 1
  27   15   37 1
  28   16   17 2
  29   16   18 1
  30   18   19 ar
  31   18   23 ar
  32   19   20 ar
  33   19   24 1
  34   20   21 ar
  35   20   38 1
  36   21   22 ar
  37   21   28 1
  38   22   23 ar
  39   22   39 1
  40   23   40 1
  41   24   25 1
  42   24   26 1
  43   24   27 1
  44   28   41 1
  45   28   42 1
  46   28   43 1

#	End of record

