#	Name: ASD01883950
#	Creating user name:	WinNT
#	Creation time:	15. 06. 2019 19:47

#	Modifying user name:	WinNT
#	Modification time:	15. 06. 2019 19:47

#	Program:	/corina/corina34_cracker 3.40 0067  02.08.2006

@<TRIPOS>MOLECULE
ASD01883950
  58   61    0    0    0
SMALL
NO_CHARGES


@<TRIPOS>ATOM
   1 C1             0.5428     0.1255     0.9709 C.3     
   2 C2             0.4286    -1.2526     0.3163 C.3     
   3 O3            -0.9396    -1.6649     0.3097 O.3     
   4 C4            -1.1576    -2.9467    -0.2832 C.3     
   5 C5            -2.6269    -3.2785    -0.2364 C.2     
   6 N6            -3.2485    -3.9018     0.7311 N.2     
   7 N7            -4.4991    -4.0224     0.4533 N.2     
   8 C8            -4.7443    -3.4733    -0.7252 C.2     
   9 C9            -5.9104    -3.3228    -1.5001 C.2     
  10 C10           -5.8317    -2.6933    -2.7033 C.2     
  11 C11           -7.0670    -2.5207    -3.5490 C.3     
  12 N12           -7.6289    -1.1816    -3.3276 N.3     
  13 C13           -8.8372    -0.9771    -4.1376 C.3     
  14 H14           -8.7264    -1.4922    -5.0918 H       
  15 C15          -10.0509    -1.5376    -3.3934 C.3     
  16 C16          -10.2064    -0.8146    -2.0540 C.3     
  17 C17          -10.4067     0.6817    -2.3024 C.3     
  18 H18          -11.3033     0.8334    -2.9034 H       
  19 C19           -9.1931     1.2422    -3.0465 C.3     
  20 C20           -9.0375     0.5192    -4.3859 C.3     
  21 C21          -10.5599     1.3938    -0.9831 C.ar    
  22 C22           -9.5404     1.3484    -0.0507 C.ar    
  23 C23           -9.6809     2.0016     1.1595 C.ar    
  24 C24          -10.8408     2.7006     1.4371 C.ar    
  25 C25          -11.8599     2.7467     0.5043 C.ar    
  26 C26          -11.7177     2.0971    -0.7076 C.ar    
  27 C27           -4.5938    -2.2039    -3.1546 C.2     
  28 C28           -3.4846    -2.3554    -2.4011 C.2     
  29 N29           -3.5500    -2.9793    -1.1901 N.pl3   
  30 C30           -7.2301    -3.8535    -1.0024 C.3     
  31 F31           -7.5289    -5.0516    -1.6602 F       
  32 F32           -7.1500    -4.0852     0.3749 F       
  33 F33           -8.2366    -2.9166    -1.2600 F       
  34 H34            1.5865     0.4400     0.9760 H       
  35 H35           -0.0509     0.8456     0.4078 H       
  36 H36            0.1743     0.0729     1.9954 H       
  37 H37            0.7971    -1.2000    -0.7081 H       
  38 H38            1.0223    -1.9727     0.8795 H       
  39 H39           -0.8220    -2.9291    -1.3201 H       
  40 H40           -0.5968    -3.7019     0.2675 H       
  41 H41           -6.8062    -2.6359    -4.6010 H       
  42 H42           -7.8045    -3.2743    -3.2728 H       
  43 H43           -7.8191    -1.0265    -2.3489 H       
  44 H44          -10.9475    -1.3859    -3.9944 H       
  45 H45           -9.9081    -2.6036    -3.2165 H       
  46 H46          -11.0710    -1.2139    -1.5239 H       
  47 H47           -9.3098    -0.9663    -1.4530 H       
  48 H48           -9.3358     2.3082    -3.2234 H       
  49 H49           -8.2965     1.0905    -2.4455 H       
  50 H50           -8.1729     0.9185    -4.9161 H       
  51 H51           -9.9341     0.6709    -4.9869 H       
  52 H52           -8.6342     0.8023    -0.2675 H       
  53 H53           -8.8847     1.9655     1.8883 H       
  54 H54          -10.9508     3.2103     2.3828 H       
  55 H55          -12.7662     3.2926     0.7213 H       
  56 H56          -12.5124     2.1364    -1.4379 H       
  57 H57           -4.5300    -1.7042    -4.1099 H       
  58 H58           -2.5386    -1.9754    -2.7576 H       
@<TRIPOS>BOND
   1    1    2 1
   2    1   34 1
   3    1   35 1
   4    1   36 1
   5    2    3 1
   6    2   37 1
   7    2   38 1
   8    3    4 1
   9    4    5 1
  10    4   39 1
  11    4   40 1
  12    5   29 1
  13    5    6 2
  14    6    7 1
  15    7    8 2
  16    8   29 1
  17    8    9 1
  18    9   10 2
  19    9   30 1
  20   10   11 1
  21   10   27 1
  22   11   12 1
  23   11   41 1
  24   11   42 1
  25   12   13 1
  26   12   43 1
  27   13   14 1
  28   13   20 1
  29   13   15 1
  30   15   16 1
  31   15   44 1
  32   15   45 1
  33   16   17 1
  34   16   46 1
  35   16   47 1
  36   17   18 1
  37   17   19 1
  38   17   21 1
  39   19   20 1
  40   19   48 1
  41   19   49 1
  42   20   50 1
  43   20   51 1
  44   21   26 ar
  45   21   22 ar
  46   22   23 ar
  47   22   52 1
  48   23   24 ar
  49   23   53 1
  50   24   25 ar
  51   24   54 1
  52   25   26 ar
  53   25   55 1
  54   26   56 1
  55   27   28 2
  56   27   57 1
  57   28   29 1
  58   28   58 1
  59   30   31 1
  60   30   32 1
  61   30   33 1

#	End of record

