#	Name: ASD03430301
#	Creating user name:	WinNT
#	Creation time:	15. 06. 2019 20:40

#	Modifying user name:	WinNT
#	Modification time:	15. 06. 2019 20:40

#	Program:	/corina/corina34_cracker 3.40 0067  02.08.2006

@<TRIPOS>MOLECULE
ASD03430301
  63   69    0    0    0
SMALL
NO_CHARGES


@<TRIPOS>ATOM
   1 C1            -0.2205     0.8794    -0.2293 C.ar    
   2 C2            -0.1489    -0.4857    -0.0565 C.ar    
   3 C3             1.0772    -1.1149    -0.0227 C.ar    
   4 C4             2.2514    -0.3769    -0.1527 C.ar    
   5 C5             2.1701     0.9979    -0.3350 C.ar    
   6 C6             0.9355     1.6356    -0.3785 C.ar    
   7 O7             3.3494    -1.1803    -0.0624 O.3     
   8 C8             1.4879    -2.5551     0.1233 C.3     
   9 C9             2.9612    -2.5458    -0.3071 C.3     
  10 C10            0.4653    -4.1579     1.4297 C.ar    
  11 C11            1.3176    -3.0602     1.5251 C.ar    
  12 C12            0.6619    -3.4716    -0.7331 C.2     
  13 N13            0.1002    -4.3716     0.0983 N.am    
  14 O14            0.5269    -3.4134    -1.9370 O.2     
  15 C15            1.8115    -2.6613     2.7466 C.ar    
  16 C16            1.4619    -3.3507     3.8945 C.ar    
  17 C17            0.6153    -4.4407     3.8117 C.ar    
  18 C18            0.1184    -4.8452     2.5898 C.ar    
  19 C19           -0.7894    -5.4487    -0.3429 C.3     
  20 C20           -1.3924     1.8395    -0.2909 C.3     
  21 C21           -0.6960     3.2072    -0.0969 C.3     
  22 O22            0.6402     2.9525    -0.5629 O.3     
  23 C23            2.7343    -1.4730     2.8338 C.3     
  24 C24           -2.2372    -4.9545    -0.3238 C.3     
  25 C25           -3.1815    -6.0809    -0.7866 C.3     
  26 C26           -4.1483    -6.2795     0.4061 C.3     
  27 C27           -4.0148    -4.9320     1.1602 C.3     
  28 O28           -2.6162    -4.6033     1.0175 O.3     
  29 N29            4.0937    -1.8798     2.4538 N.3     
  30 C30            4.9901    -0.7123     2.3683 C.3     
  31 C31            6.1723    -0.9724     3.3255 C.3     
  32 C32            6.1710    -2.5170     3.4708 C.3     
  33 C33            4.6550    -2.8334     3.4343 C.3     
  34 H34           -1.0547    -1.0636     0.0528 H       
  35 H35            3.0750     1.5772    -0.4440 H       
  36 H36            3.0571    -2.7918    -1.3647 H       
  37 H37            3.5477    -3.2306     0.3054 H       
  38 H38            1.8497    -3.0383     4.8528 H       
  39 H39            0.3419    -4.9782     4.7076 H       
  40 H40           -0.5423    -5.6976     2.5330 H       
  41 H41           -0.5214    -5.7493    -1.3558 H       
  42 H42           -0.6877    -6.3017     0.3281 H       
  43 H43           -1.8872     1.7884    -1.2608 H       
  44 H44           -2.0988     1.6442     0.5159 H       
  45 H45           -1.1767     3.9749    -0.7034 H       
  46 H46           -0.6904     3.4920     0.9552 H       
  47 H47            2.3862    -0.6923     2.1575 H       
  48 H48            2.7410    -1.0925     3.8552 H       
  49 H49           -2.3422    -4.0900    -0.9794 H       
  50 H50           -3.7316    -5.7759    -1.6769 H       
  51 H51           -2.6197    -6.9950    -0.9786 H       
  52 H52           -5.1700    -6.4307     0.0576 H       
  53 H53           -3.8259    -7.1102     1.0339 H       
  54 H54           -4.6379    -4.1683     0.6947 H       
  55 H55           -4.2754    -5.0531     2.2116 H       
  56 H56            5.3569    -0.6003     1.3480 H       
  57 H57            4.4568     0.1879     2.6738 H       
  58 H58            7.1078    -0.6276     2.8851 H       
  59 H59            5.9998    -0.4945     4.2898 H       
  60 H60            6.6884    -2.9882     2.6351 H       
  61 H61            6.6104    -2.8202     4.4211 H       
  62 H62            4.2103    -2.6735     4.4166 H       
  63 H63            4.4892    -3.8589     3.1041 H       
@<TRIPOS>BOND
   1    1    2 ar
   2    1    6 ar
   3    1   20 1
   4    2    3 ar
   5    2   34 1
   6    3    4 ar
   7    3    8 1
   8    4    5 ar
   9    4    7 1
  10    5    6 ar
  11    5   35 1
  12    6   22 1
  13    7    9 1
  14    8    9 1
  15    8   11 1
  16    8   12 1
  17    9   36 1
  18    9   37 1
  19   10   11 ar
  20   10   13 1
  21   10   18 ar
  22   11   15 ar
  23   12   13 am
  24   12   14 2
  25   13   19 1
  26   15   16 ar
  27   15   23 1
  28   16   17 ar
  29   16   38 1
  30   17   18 ar
  31   17   39 1
  32   18   40 1
  33   19   24 1
  34   19   41 1
  35   19   42 1
  36   20   21 1
  37   20   43 1
  38   20   44 1
  39   21   22 1
  40   21   45 1
  41   21   46 1
  42   23   29 1
  43   23   47 1
  44   23   48 1
  45   24   25 1
  46   24   28 1
  47   24   49 1
  48   25   26 1
  49   25   50 1
  50   25   51 1
  51   26   27 1
  52   26   52 1
  53   26   53 1
  54   27   28 1
  55   27   54 1
  56   27   55 1
  57   29   30 1
  58   29   33 1
  59   30   31 1
  60   30   56 1
  61   30   57 1
  62   31   32 1
  63   31   58 1
  64   31   59 1
  65   32   33 1
  66   32   60 1
  67   32   61 1
  68   33   62 1
  69   33   63 1

#	End of record

