#	Name: ASD01917771
#	Creating user name:	WinNT
#	Creation time:	15. 06. 2019 20:10

#	Modifying user name:	WinNT
#	Modification time:	15. 06. 2019 20:10

#	Program:	/corina/corina34_cracker 3.40 0067  02.08.2006

@<TRIPOS>MOLECULE
ASD01917771
  42   45    0    0    0
SMALL
NO_CHARGES


@<TRIPOS>ATOM
   1 C1            -0.0160     1.3234     0.0040 C.2     
   2 C2            -0.0105    -0.0235     0.0123 C.2     
   3 C3            -1.2488    -0.8834     0.0281 C.3     
   4 C4            -2.4393    -0.0290     0.4811 C.3     
   5 N5            -2.4060     1.2589    -0.2281 N.am    
   6 C6            -1.2689     2.1639     0.0194 C.3     
   7 C7            -3.3897     1.6029    -1.0828 C.2     
   8 O8            -4.2624     0.8035    -1.3582 O.2     
   9 C9            -3.4069     2.9557    -1.6864 C.ar    
  10 O10            1.2600     1.7304    -0.0140 O.3     
  11 C11            2.0343     0.6338    -0.0131 C.2     
  12 N12            1.2683    -0.4226     0.0033 N.2     
  13 C13            3.5412     0.6243    -0.0287 C.3     
  14 O14            4.0034     0.6107    -1.3808 O.3     
  15 C15            5.3488     0.6007    -1.5729 C.ar    
  16 C16            5.8668     0.5873    -2.8598 C.ar    
  17 C17            7.2347     0.5772    -3.0523 C.ar    
  18 C18            8.0873     0.5804    -1.9639 C.ar    
  19 C19            7.5735     0.5934    -0.6803 C.ar    
  20 C20            6.2064     0.6098    -0.4825 C.ar    
  21 C21           -3.8612     3.1533    -2.9939 C.ar    
  22 C22           -3.8605     4.4319    -3.5172 C.ar    
  23 N23           -3.4392     5.4557    -2.8019 N.ar    
  24 C24           -3.0031     5.3134    -1.5661 C.ar    
  25 C25           -2.9748     4.0711    -0.9625 C.ar    
  26 H26           -1.4372    -1.2708    -0.9731 H       
  27 H27           -1.1090    -1.7122     0.7221 H       
  28 H28           -3.3694    -0.5483     0.2498 H       
  29 H29           -2.3753     0.1448     1.5552 H       
  30 H30           -1.3813     2.6436     0.9917 H       
  31 H31           -1.2187     2.9195    -0.7645 H       
  32 H32            3.9154     1.5159     0.4742 H       
  33 H33            3.9043    -0.2639     0.4883 H       
  34 H34            5.2013     0.5844    -3.7103 H       
  35 H35            7.6385     0.5664    -4.0540 H       
  36 H36            9.1565     0.5725    -2.1165 H       
  37 H37            8.2415     0.5952     0.1683 H       
  38 H38            5.8055     0.6199     0.5203 H       
  39 H39           -4.2072     2.3190    -3.5860 H       
  40 H40           -4.2095     4.5947    -4.5262 H       
  41 H41           -2.6672     6.1804    -1.0167 H       
  42 H42           -2.6165     3.9619     0.0505 H       
@<TRIPOS>BOND
   1    1    2 2
   2    1   10 1
   3    1    6 1
   4    2    3 1
   5    2   12 1
   6    3    4 1
   7    3   26 1
   8    3   27 1
   9    4    5 1
  10    4   28 1
  11    4   29 1
  12    5    6 1
  13    5    7 am
  14    6   30 1
  15    6   31 1
  16    7    8 2
  17    7    9 1
  18    9   21 ar
  19    9   25 ar
  20   10   11 1
  21   11   12 2
  22   11   13 1
  23   13   14 1
  24   13   32 1
  25   13   33 1
  26   14   15 1
  27   15   16 ar
  28   15   20 ar
  29   16   17 ar
  30   16   34 1
  31   17   18 ar
  32   17   35 1
  33   18   19 ar
  34   18   36 1
  35   19   20 ar
  36   19   37 1
  37   20   38 1
  38   21   22 ar
  39   21   39 1
  40   22   23 ar
  41   22   40 1
  42   23   24 ar
  43   24   25 ar
  44   24   41 1
  45   25   42 1

#	End of record

