#	Name: ASD02770087
#	Creating user name:	WinNT
#	Creation time:	15. 06. 2019 20:26

#	Modifying user name:	WinNT
#	Modification time:	15. 06. 2019 20:26

#	Program:	/corina/corina34_cracker 3.40 0067  02.08.2006

@<TRIPOS>MOLECULE
ASD02770087
  29   29    0    0    0
SMALL
NO_CHARGES


@<TRIPOS>ATOM
   1 C1            -0.0179     1.4698     0.0101 C.2     
   2 C2             0.0021    -0.0041     0.0020 C.ar    
   3 C3             1.2232    -0.6923    -0.0133 C.ar    
   4 C4             1.2308    -2.0771    -0.0204 C.ar    
   5 C5             0.0385    -2.7770    -0.0127 C.ar    
   6 C6            -1.1695    -2.1017     0.0020 C.ar    
   7 C7            -1.1951    -0.7225     0.0154 C.ar    
   8 O8             2.3939    -0.0039    -0.0217 O.3     
   9 C9             2.5406    -2.8222    -0.0369 C.3     
  10 C10            3.0522    -2.9701     1.3729 C.2     
  11 C11            3.3393    -4.1581     1.8443 C.2     
  12 N12            1.0969     2.1338     0.0030 N.2     
  13 N13            1.0779     3.5347     0.0107 N.am    
  14 C14            2.2358     4.2244     0.0034 C.2     
  15 O15            2.2193     5.4403     0.0101 O.2     
  16 N16            3.4120     3.5665    -0.0114 N.am    
  17 H17           -0.9605     1.9970     0.0175 H       
  18 H18            0.0498    -3.8569    -0.0186 H       
  19 H19           -2.0959    -2.6568     0.0071 H       
  20 H20           -2.1397    -0.1992     0.0318 H       
  21 H21            2.7417     0.1913     0.8592 H       
  22 H22            2.3916    -3.8093    -0.4747 H       
  23 H23            3.2669    -2.2672    -0.6306 H       
  24 H24            3.1821    -2.0966     1.9946 H       
  25 H25            3.7060    -4.2641     2.8546 H       
  26 H26            3.2094    -5.0316     1.2226 H       
  27 H27            0.2314     4.0082     0.0214 H       
  28 H28            3.4251     2.5966    -0.0167 H       
  29 H29            4.2453     4.0629    -0.0167 H       
@<TRIPOS>BOND
   1    1    2 1
   2    1   12 2
   3    1   17 1
   4    2    3 ar
   5    2    7 ar
   6    3    4 ar
   7    3    8 1
   8    4    5 ar
   9    4    9 1
  10    5    6 ar
  11    5   18 1
  12    6    7 ar
  13    6   19 1
  14    7   20 1
  15    8   21 1
  16    9   10 1
  17    9   22 1
  18    9   23 1
  19   10   11 2
  20   10   24 1
  21   11   25 1
  22   11   26 1
  23   12   13 1
  24   13   14 am
  25   13   27 1
  26   14   15 2
  27   14   16 am
  28   16   28 1
  29   16   29 1

#	End of record

