#	Name: ASD01870202
#	Creating user name:	WinNT
#	Creation time:	15. 06. 2019 19:38

#	Modifying user name:	WinNT
#	Modification time:	15. 06. 2019 19:38

#	Program:	/corina/corina34_cracker 3.40 0067  02.08.2006

@<TRIPOS>MOLECULE
ASD01870202
  58   62    0    0    0
SMALL
NO_CHARGES


@<TRIPOS>ATOM
   1 C1            -0.1643     1.3673    -2.2383 C.3     
   2 C2             7.5650     3.7779    -4.4747 C.ar    
   3 C3             6.5407     4.4678    -3.8299 C.ar    
   4 C4             6.0210     4.0149    -2.6554 C.ar    
   5 C5             6.5215     2.8354    -2.0813 C.ar    
   6 C6             7.5651     2.1321    -2.7376 C.ar    
   7 C7             8.0760     2.6311    -3.9490 C.ar    
   8 C8             6.0066     2.3396    -0.8695 C.ar    
   9 C9             6.5042     1.1975    -0.3326 C.ar    
  10 C10            7.5402     0.4882    -0.9717 C.ar    
  11 C11            8.0640     0.9564    -2.1663 C.ar    
  12 C12            8.2491    -0.7551    -0.6103 C.2     
  13 N13            9.1754    -1.0511    -1.5382 N.am    
  14 C14            9.1390    -0.0173    -2.5790 C.3     
  15 C15           10.0705    -2.2105    -1.5144 C.3     
  16 C16           10.3666    -2.6557    -2.9480 C.3     
  17 C17           11.0360    -1.5100    -3.7098 C.3     
  18 C18           12.3442    -1.1301    -3.0133 C.3     
  19 C19           12.0481    -0.6850    -1.5797 C.3     
  20 C20           11.3788    -1.8306    -0.8179 C.3     
  21 C21            4.8990     3.0801    -0.1653 C.3     
  22 C22            3.5700     2.6578    -0.7367 C.ar    
  23 C23            2.8830     1.5887    -0.1941 C.ar    
  24 N24            1.7193     1.2136    -0.6885 N.ar    
  25 C25            1.1672     1.8364    -1.7112 C.ar    
  26 C26            1.7960     2.9143    -2.3057 C.ar    
  27 C27            3.0183     3.3409    -1.8101 C.ar    
  28 O28            8.0272    -1.4168     0.3850 O.2     
  29 O29            9.1448    -3.0105    -3.5985 O.3     
  30 C30           -0.0793    -0.1199    -2.5874 C.3     
  31 H31           -0.9301     1.5187    -1.4775 H       
  32 H32           -0.4223     1.9360    -3.1317 H       
  33 H33            7.9567     4.1564    -5.4073 H       
  34 H34            6.1528     5.3755    -4.2682 H       
  35 H35            5.2275     4.5612    -2.1672 H       
  36 H36            8.8698     2.1066    -4.4600 H       
  37 H37            6.1008     0.8269     0.5981 H       
  38 H38            8.8909    -0.4636    -3.5420 H       
  39 H39           10.1020     0.4900    -2.6373 H       
  40 H40            9.5937    -3.0267    -0.9717 H       
  41 H41           11.0327    -3.5183    -2.9303 H       
  42 H42           11.2469    -1.8272    -4.7311 H       
  43 H43           10.3700    -0.6474    -3.7274 H       
  44 H44           13.0102    -1.9928    -2.9956 H       
  45 H45           12.8211    -0.3140    -3.5560 H       
  46 H46           12.9801    -0.4143    -1.0835 H       
  47 H47           11.3821     0.1777    -1.5974 H       
  48 H48           11.1678    -1.5135     0.2034 H       
  49 H49           12.0448    -2.6933    -0.8002 H       
  50 H50            4.9268     2.8484     0.8995 H       
  51 H51            5.0313     4.1526    -0.3074 H       
  52 H52            3.3039     1.0541     0.6446 H       
  53 H53            1.3389     3.4201    -3.1434 H       
  54 H54            3.5326     4.1802    -2.2545 H       
  55 H55            9.2568    -3.3032    -4.5133 H       
  56 H56            0.6864    -0.2714    -3.3482 H       
  57 H57            0.1786    -0.6887    -1.6941 H       
  58 H58           -1.0425    -0.4593    -2.9687 H       
@<TRIPOS>BOND
   1    1   30 1
   2    1   25 1
   3    1   31 1
   4    1   32 1
   5    2    3 ar
   6    2    7 ar
   7    2   33 1
   8    3    4 ar
   9    3   34 1
  10    4    5 ar
  11    4   35 1
  12    5    6 ar
  13    5    8 ar
  14    6    7 ar
  15    6   11 ar
  16    7   36 1
  17    8    9 ar
  18    8   21 1
  19    9   10 ar
  20    9   37 1
  21   10   11 ar
  22   10   12 1
  23   11   14 1
  24   12   13 am
  25   12   28 2
  26   13   14 1
  27   13   15 1
  28   14   38 1
  29   14   39 1
  30   15   16 1
  31   15   20 1
  32   15   40 1
  33   16   17 1
  34   16   29 1
  35   16   41 1
  36   17   18 1
  37   17   42 1
  38   17   43 1
  39   18   19 1
  40   18   44 1
  41   18   45 1
  42   19   20 1
  43   19   46 1
  44   19   47 1
  45   20   48 1
  46   20   49 1
  47   21   22 1
  48   21   50 1
  49   21   51 1
  50   22   23 ar
  51   22   27 ar
  52   23   24 ar
  53   23   52 1
  54   24   25 ar
  55   25   26 ar
  56   26   27 ar
  57   26   53 1
  58   27   54 1
  59   29   55 1
  60   30   56 1
  61   30   57 1
  62   30   58 1

#	End of record

