#	Name: ASD01209069
#	Creating user name:	WinNT
#	Creation time:	15. 06. 2019 19:10

#	Modifying user name:	WinNT
#	Modification time:	15. 06. 2019 19:10

#	Program:	/corina/corina34_cracker 3.40 0067  02.08.2006

@<TRIPOS>MOLECULE
ASD01209069
  41   42    0    0    0
SMALL
NO_CHARGES


@<TRIPOS>ATOM
   1 C1            -0.0184     1.5028     0.0103 C.ar    
   2 C2             0.0021    -0.0041     0.0020 C.3     
   3 C3            -0.2244    -0.5172     1.4007 C.2     
   4 C4             0.8829    -0.4405     2.4200 C.3     
   5 O5            -1.2933    -0.9899     1.7048 O.2     
   6 C6             0.7953     0.8908     3.1690 C.3     
   7 C7             0.7420    -1.5951     3.4140 C.3     
   8 O8            -1.0317    -0.4897    -0.8568 O.3     
   9 C9            -0.7320    -1.7421    -1.4764 C.3     
  10 C10            1.1692     2.2096     0.0028 C.ar    
  11 C11            1.1509     3.5929     0.0104 C.ar    
  12 C12           -0.0575     4.2684     0.0255 C.ar    
  13 C13           -1.2453     3.5592     0.0331 C.ar    
  14 C14           -1.2253     2.1773     0.0197 C.ar    
  15 Cl15          -0.0822     6.0042     0.0357 Cl      
  16 Cl16           2.6424     4.4813     0.0015 Cl      
  17 C17           -2.0308    -2.5158    -1.7225 C.3     
  18 C18           -1.7076    -3.8196    -2.4569 C.3     
  19 O19           -1.0334    -3.5208    -3.6809 O.3     
  20 C20            0.2110    -2.8393    -3.5103 C.3     
  21 C21           -0.0351    -1.4961    -2.8181 C.3     
  22 H22            0.9692    -0.3523    -0.3606 H       
  23 H23            1.8466    -0.5109     1.9156 H       
  24 H24           -0.1684     0.9611     3.6734 H       
  25 H25            1.5962     0.9463     3.9063 H       
  26 H26            0.8957     1.7133     2.4609 H       
  27 H27            0.8044    -2.5435     2.8804 H       
  28 H28            1.5429    -1.5396     4.1513 H       
  29 H29           -0.2217    -1.5247     3.9184 H       
  30 H30           -0.0787    -2.3236    -0.8260 H       
  31 H31            2.1116     1.6821    -0.0087 H       
  32 H32           -2.1884     4.0855     0.0453 H       
  33 H33           -2.1527     1.6240     0.0252 H       
  34 H34           -2.5056    -2.7434    -0.7681 H       
  35 H35           -2.7046    -1.9125    -2.3308 H       
  36 H36           -1.0665    -4.4402    -1.8309 H       
  37 H37           -2.6327    -4.3543    -2.6726 H       
  38 H38            0.8773    -3.4470    -2.8980 H       
  39 H39            0.6681    -2.6677    -4.4848 H       
  40 H40           -0.6686    -0.8721    -3.4486 H       
  41 H41            0.9174    -0.9944    -2.6473 H       
@<TRIPOS>BOND
   1    1    2 1
   2    1   10 ar
   3    1   14 ar
   4    2    3 1
   5    2    8 1
   6    2   22 1
   7    3    4 1
   8    3    5 2
   9    4    6 1
  10    4    7 1
  11    4   23 1
  12    6   24 1
  13    6   25 1
  14    6   26 1
  15    7   27 1
  16    7   28 1
  17    7   29 1
  18    8    9 1
  19    9   17 1
  20    9   21 1
  21    9   30 1
  22   10   11 ar
  23   10   31 1
  24   11   12 ar
  25   11   16 1
  26   12   13 ar
  27   12   15 1
  28   13   14 ar
  29   13   32 1
  30   14   33 1
  31   17   18 1
  32   17   34 1
  33   17   35 1
  34   18   19 1
  35   18   36 1
  36   18   37 1
  37   19   20 1
  38   20   21 1
  39   20   38 1
  40   20   39 1
  41   21   40 1
  42   21   41 1

#	End of record

