#	Name: ASD06710006
#	Creating user name:	WinNT
#	Creation time:	15. 06. 2019 21:08

#	Modifying user name:	WinNT
#	Modification time:	15. 06. 2019 21:08

#	Program:	/corina/corina34_cracker 3.40 0067  02.08.2006

@<TRIPOS>MOLECULE
ASD06710006
  30   31    0    0    0
SMALL
NO_CHARGES


@<TRIPOS>ATOM
   1 C1            -0.0167     1.3785     0.0096 C.ar    
   2 C2             0.0021    -0.0041     0.0020 C.ar    
   3 C3             1.2072    -0.6817    -0.0132 C.ar    
   4 C4             2.3968     0.0216    -0.0208 C.ar    
   5 C5             2.3811     1.4094    -0.0132 C.ar    
   6 C6             1.1699     2.0870     0.0021 C.ar    
   7 O7             3.5494     2.1036    -0.0202 O.3     
   8 C8             4.0870     2.4361    -1.2239 C.ar    
   9 C9             5.2783     3.1444    -1.2795 C.ar    
  10 C10            5.8245     3.4828    -2.5025 C.ar    
  11 C11            5.1820     3.1144    -3.6748 C.ar    
  12 C12            3.9904     2.4053    -3.6196 C.ar    
  13 C13            3.4471     2.0619    -2.3967 C.ar    
  14 C14           -1.2935    -0.7738     0.0108 C.3     
  15 C15           -1.7395    -1.0228    -1.4070 C.2     
  16 O16           -1.0736    -0.6168    -2.3299 O.2     
  17 I17            1.1403     4.1817     0.0129 I       
  18 I18            4.2223    -1.0061    -0.0431 I       
  19 I19            3.0195     1.8486    -5.3907 I       
  20 O20            5.7194     3.4483    -4.8785 O.3     
  21 O21           -2.8764    -1.6956    -1.6446 O.3     
  22 H22           -0.9595     1.9052     0.0170 H       
  23 H23            1.2189    -1.7616    -0.0187 H       
  24 H24            5.7787     3.4318    -0.3666 H       
  25 H25            6.7519     4.0346    -2.5456 H       
  26 H26            2.5197     1.5101    -2.3535 H       
  27 H27           -1.1462    -1.7273     0.5181 H       
  28 H28           -2.0552    -0.1971     0.5354 H       
  29 H29            6.3265     2.7857    -5.2356 H       
  30 H30           -3.1214    -1.8307    -2.5702 H       
@<TRIPOS>BOND
   1    1    2 ar
   2    1    6 ar
   3    1   22 1
   4    2    3 ar
   5    2   14 1
   6    3    4 ar
   7    3   23 1
   8    4    5 ar
   9    4   18 1
  10    5    6 ar
  11    5    7 1
  12    6   17 1
  13    7    8 1
  14    8    9 ar
  15    8   13 ar
  16    9   10 ar
  17    9   24 1
  18   10   11 ar
  19   10   25 1
  20   11   12 ar
  21   11   20 1
  22   12   13 ar
  23   12   19 1
  24   13   26 1
  25   14   15 1
  26   14   27 1
  27   14   28 1
  28   15   16 2
  29   15   21 1
  30   20   29 1
  31   21   30 1

#	End of record

