#	Name: ASD02500030
#	Creating user name:	WinNT
#	Creation time:	15. 06. 2019 20:22

#	Modifying user name:	WinNT
#	Modification time:	15. 06. 2019 20:22

#	Program:	/corina/corina34_cracker 3.40 0067  02.08.2006

@<TRIPOS>MOLECULE
ASD02500030
  63   67    0    0    0
SMALL
NO_CHARGES


@<TRIPOS>ATOM
   1 C1             0.5203     0.2597     4.0578 C.ar    
   2 C2            -0.2786     1.1458     4.7571 C.ar    
   3 C3            -0.0780     2.5082     4.6345 C.ar    
   4 C4             0.9224     2.9916     3.8122 C.ar    
   5 C5             1.7280     2.1087     3.1080 C.ar    
   6 C6             1.5251     0.7360     3.2322 C.ar    
   7 O7             2.3122    -0.1344     2.5445 O.3     
   8 C8             2.0466    -1.5274     2.7205 C.3     
   9 N9             2.7414     2.5957     2.2744 N.3     
  10 C10            4.0680     2.2408     2.7958 C.3     
  11 C11            5.1375     2.6303     1.7698 C.3     
  12 N12            4.9627     4.0504     1.4290 N.am    
  13 C13            3.6242     4.5103     1.0286 C.3     
  14 C14            2.6144     4.0467     2.0839 C.3     
  15 C15            6.0016     4.9074     1.4817 C.2     
  16 O16            7.0749     4.5357     1.9156 O.2     
  17 C17            5.8364     6.2964     1.0131 C.ar    
  18 C18            6.4646     7.3442     1.6926 C.ar    
  19 C19            6.3087     8.6389     1.2530 C.ar    
  20 C20            5.5262     8.9057     0.1328 C.ar    
  21 C21            4.8993     7.8643    -0.5460 C.ar    
  22 C22            5.0561     6.5670    -0.1148 C.ar    
  23 N23            5.3702    10.2149    -0.3086 N.am    
  24 S24            5.5240    10.5697    -1.9188 S.o2    
  25 O25            5.4180    11.9823    -2.0304 O.2     
  26 C26            7.1708    10.1556    -2.3892 C.ar    
  27 C27            7.4625     8.8770    -2.7529 C.ar    
  28 C28            8.7749     8.5434    -3.1291 C.ar    
  29 C29            9.7756     9.5468    -3.1234 C.ar    
  30 C30            9.4365    10.8561    -2.7412 C.ar    
  31 C31            8.1538    11.1436    -2.3886 C.ar    
  32 O32            4.6704     9.6692    -2.6115 O.2     
  33 C33            9.1145     7.2340    -3.5103 C.ar    
  34 C34           10.3960     6.9477    -3.8680 C.ar    
  35 C35           11.3802     7.9345    -3.8620 C.ar    
  36 C36           11.0880     9.2133    -3.4995 C.ar    
  37 H37            0.3635    -0.8040     4.1591 H       
  38 H38           -1.0617     0.7725     5.4004 H       
  39 H39           -0.7047     3.1964     5.1822 H       
  40 H40            1.0765     4.0564     3.7177 H       
  41 H41            2.7439    -2.1092     2.1177 H       
  42 H42            2.1677    -1.7905     3.7713 H       
  43 H43            1.0257    -1.7451     2.4068 H       
  44 H44            4.2471     2.7754     3.7287 H       
  45 H45            4.1122     1.1669     2.9773 H       
  46 H46            6.1283     2.4755     2.1968 H       
  47 H47            5.0232     2.0218     0.8727 H       
  48 H48            3.6146     5.5985     0.9657 H       
  49 H49            3.3645     4.0825     0.0604 H       
  50 H50            1.6043     4.2826     1.7490 H       
  51 H51            2.8137     4.5562     3.0266 H       
  52 H52            7.0715     7.1379     2.5618 H       
  53 H53            6.7934     9.4488     1.7777 H       
  54 H54            4.2927     8.0745    -1.4145 H       
  55 H55            4.5698     5.7596    -0.6420 H       
  56 H56            5.1712    10.9204     0.3266 H       
  57 H57            6.6896     8.1227    -2.7522 H       
  58 H58           10.1887    11.6310    -2.7320 H       
  59 H59            7.8957    12.1506    -2.0956 H       
  60 H60            8.3625     6.4589    -3.5191 H       
  61 H61           10.6543     5.9407    -4.1606 H       
  62 H62           12.3898     7.6807    -4.1497 H       
  63 H63           11.8609     9.9677    -3.4999 H       
@<TRIPOS>BOND
   1    1    2 ar
   2    1    6 ar
   3    1   37 1
   4    2    3 ar
   5    2   38 1
   6    3    4 ar
   7    3   39 1
   8    4    5 ar
   9    4   40 1
  10    5    6 ar
  11    5    9 1
  12    6    7 1
  13    7    8 1
  14    8   41 1
  15    8   42 1
  16    8   43 1
  17    9   10 1
  18    9   14 1
  19   10   11 1
  20   10   44 1
  21   10   45 1
  22   11   12 1
  23   11   46 1
  24   11   47 1
  25   12   13 1
  26   12   15 am
  27   13   14 1
  28   13   48 1
  29   13   49 1
  30   14   50 1
  31   14   51 1
  32   15   16 2
  33   15   17 1
  34   17   18 ar
  35   17   22 ar
  36   18   19 ar
  37   18   52 1
  38   19   20 ar
  39   19   53 1
  40   20   21 ar
  41   20   23 1
  42   21   22 ar
  43   21   54 1
  44   22   55 1
  45   23   24 am
  46   23   56 1
  47   24   25 2
  48   24   26 1
  49   24   32 2
  50   26   27 ar
  51   26   31 ar
  52   27   28 ar
  53   27   57 1
  54   28   29 ar
  55   28   33 ar
  56   29   30 ar
  57   29   36 ar
  58   30   31 ar
  59   30   58 1
  60   31   59 1
  61   33   34 ar
  62   33   60 1
  63   34   35 ar
  64   34   61 1
  65   35   36 ar
  66   35   62 1
  67   36   63 1

#	End of record

