#	Name: ASD01812420
#	Creating user name:	WinNT
#	Creation time:	15. 06. 2019 19:28

#	Modifying user name:	WinNT
#	Modification time:	15. 06. 2019 19:28

#	Program:	/corina/corina34_cracker 3.40 0067  02.08.2006

@<TRIPOS>MOLECULE
ASD01812420
  38   37    0    0    0
SMALL
NO_CHARGES


@<TRIPOS>ATOM
   1 O1            -0.0162     1.3433     0.0094 O.3     
   2 C2             0.0021    -0.0041     0.0020 C.2     
   3 O3             1.0619    -0.5969    -0.0113 O.2     
   4 C4            -1.2657    -0.7592     0.0101 C.2     
   5 C5            -1.2475    -2.1021     0.0027 C.2     
   6 C6            -2.5153    -2.8573     0.0107 C.2     
   7 O7            -2.4970    -4.2046     0.0033 O.3     
   8 O8            -3.5751    -2.2644     0.0240 O.2     
   9 H9             0.8393     1.7940     0.0037 H       
  10 H10           -2.2082    -0.2320     0.0219 H       
  11 H11           -0.3050    -2.6293    -0.0091 H       
  12 H12           -3.3526    -4.6553     0.0091 H       
  13 C13            9.5342    14.6106     8.1530 C.3     
  14 O14            9.5535    13.1818     8.1451 O.3     
  15 C15           10.1578    12.5782     7.0865 C.2     
  16 N16           10.7054    13.2617     6.1156 N.2     
  17 S17           11.3319    12.1243     5.0240 S.3     
  18 N18           10.8417    10.7571     5.9006 N.2     
  19 C19           10.2374    11.2026     6.9710 C.2     
  20 O20            9.7160    10.3663     7.9086 O.3     
  21 C21            9.8605     8.9634     7.6788 C.3     
  22 C22            9.2172     8.1889     8.8308 C.3     
  23 N23            7.7689     8.4345     8.8374 N.3     
  24 C24            7.1337     7.8699     7.6392 C.3     
  25 C25            7.1507     7.9046    10.0602 C.3     
  26 H26           10.5567    14.9879     8.1452 H       
  27 H27            9.0070    14.9717     7.2699 H       
  28 H28            9.0240    14.9622     9.0498 H       
  29 H29            9.3701     8.6961     6.7427 H       
  30 H30           10.9195     8.7122     7.6187 H       
  31 H31            9.4044     7.1230     8.7013 H       
  32 H32            9.6463     8.5210     9.7762 H       
  33 H33            7.3057     6.7940     7.6095 H       
  34 H34            6.0619     8.0659     7.6695 H       
  35 H35            7.5623     8.3310     6.7493 H       
  36 H36            7.5916     8.3909    10.9303 H       
  37 H37            6.0785     8.0998    10.0392 H       
  38 H38            7.3232     6.8299    10.1182 H       
@<TRIPOS>BOND
   1    1    2 1
   2    1    9 1
   3    2    3 2
   4    2    4 1
   5    4    5 2
   6    4   10 1
   7    5    6 1
   8    5   11 1
   9    6    7 1
  10    6    8 2
  11    7   12 1
  12   13   14 1
  13   13   26 1
  14   13   27 1
  15   13   28 1
  16   14   15 1
  17   15   19 1
  18   15   16 2
  19   16   17 1
  20   17   18 1
  21   18   19 2
  22   19   20 1
  23   20   21 1
  24   21   22 1
  25   21   29 1
  26   21   30 1
  27   22   23 1
  28   22   31 1
  29   22   32 1
  30   23   24 1
  31   23   25 1
  32   24   33 1
  33   24   34 1
  34   24   35 1
  35   25   36 1
  36   25   37 1
  37   25   38 1

#	End of record

