#	Name: ASD09810007
#	Creating user name:	WinNT
#	Creation time:	15. 06. 2019 21:24

#	Modifying user name:	WinNT
#	Modification time:	15. 06. 2019 21:24

#	Program:	/corina/corina34_cracker 3.40 0067  02.08.2006

@<TRIPOS>MOLECULE
ASD09810007
  57   59    0    0    0
SMALL
NO_CHARGES


@<TRIPOS>ATOM
   1 C1            -0.1545     1.6332    -0.1209 C.3     
   2 C2            -0.2670     0.1185     0.0656 C.3     
   3 N3             0.6702    -0.5584    -0.8399 N.3     
   4 C4             2.0591    -0.1868    -0.5413 C.3     
   5 C5             2.2410     1.3189    -0.7460 C.3     
   6 C6             1.2811     2.0742     0.1775 C.3     
   7 C7             0.4924    -2.0157    -0.7883 C.3     
   8 O8             1.4062     3.4794    -0.0500 O.3     
   9 C9             2.3896     4.1295     0.6280 C.ar    
  10 C10            3.2837     3.4151     1.4018 C.ar    
  11 C11            2.4991     5.5163     0.5376 C.ar    
  12 C12            3.5023     6.1829     1.2282 C.ar    
  13 C13            4.3940     5.4767     2.0059 C.ar    
  14 C14            4.2932     4.0863     2.0967 C.ar    
  15 O15            1.6230     6.2166    -0.2279 O.3     
  16 C16            1.7927     7.6347    -0.2756 C.3     
  17 C17            5.2513     3.3277     2.9246 C.2     
  18 O18            5.1626     2.1176     3.0024 O.2     
  19 N19            6.2244     3.9765     3.5943 N.am    
  20 C20            7.1754     3.2237     4.4160 C.3     
  21 C21            8.1536     4.1769     5.0529 C.2     
  22 O22            9.3231     4.5868     4.5420 O.3     
  23 C23            8.0218     4.7931     6.2519 C.2     
  24 C24            9.1999     5.5658     6.3702 C.2     
  25 N25            9.8887     5.3540     5.2861 N.2     
  26 C26            9.5807     6.4607     7.5214 C.3     
  27 C27            8.9425     7.8379     7.3295 C.3     
  28 C28            9.0834     5.8461     8.8313 C.3     
  29 H29           -0.4090     1.8933    -1.1484 H       
  30 H30           -0.8390     2.1359     0.5625 H       
  31 H31           -0.0258    -0.1394     1.0969 H       
  32 H32           -1.2845    -0.2007    -0.1599 H       
  33 H33            2.2894    -0.4432     0.4928 H       
  34 H34            2.7311    -0.7277    -1.2077 H       
  35 H35            3.2680     1.5969    -0.5092 H       
  36 H36            2.0243     1.5739    -1.7833 H       
  37 H37            1.5227     1.8495     1.2163 H       
  38 H38           -0.5253    -2.2683    -1.0860 H       
  39 H39            1.1986    -2.4922    -1.4682 H       
  40 H40            0.6719    -2.3679     0.2275 H       
  41 H41            3.2023     2.3403     1.4697 H       
  42 H42            3.5841     7.2573     1.1554 H       
  43 H43            5.1734     5.9978     2.5420 H       
  44 H44            2.7806     7.8692    -0.6721 H       
  45 H45            1.0296     8.0705    -0.9204 H       
  46 H46            1.6975     8.0461     0.7293 H       
  47 H47            6.2952     4.9420     3.5322 H       
  48 H48            6.6355     2.6836     5.1938 H       
  49 H49            7.7153     2.5142     3.7889 H       
  50 H50            7.2057     4.7130     6.9546 H       
  51 H51           10.6652     6.5646     7.5574 H       
  52 H52            9.2968     8.2757     6.3963 H       
  53 H53            7.8581     7.7340     7.2935 H       
  54 H54            9.2180     8.4852     8.1622 H       
  55 H55            9.5381     4.8649     8.9679 H       
  56 H56            9.3589     6.4933     9.6639 H       
  57 H57            7.9990     5.7422     8.7952 H       
@<TRIPOS>BOND
   1    1    2 1
   2    1    6 1
   3    1   29 1
   4    1   30 1
   5    2    3 1
   6    2   31 1
   7    2   32 1
   8    3    4 1
   9    3    7 1
  10    4    5 1
  11    4   33 1
  12    4   34 1
  13    5    6 1
  14    5   35 1
  15    5   36 1
  16    6    8 1
  17    6   37 1
  18    7   38 1
  19    7   39 1
  20    7   40 1
  21    8    9 1
  22    9   11 ar
  23    9   10 ar
  24   10   14 ar
  25   10   41 1
  26   11   12 ar
  27   11   15 1
  28   12   13 ar
  29   12   42 1
  30   13   14 ar
  31   13   43 1
  32   14   17 1
  33   15   16 1
  34   16   44 1
  35   16   45 1
  36   16   46 1
  37   17   18 2
  38   17   19 am
  39   19   20 1
  40   19   47 1
  41   20   21 1
  42   20   48 1
  43   20   49 1
  44   21   23 2
  45   21   22 1
  46   22   25 1
  47   23   24 1
  48   23   50 1
  49   24   25 2
  50   24   26 1
  51   26   27 1
  52   26   28 1
  53   26   51 1
  54   27   52 1
  55   27   53 1
  56   27   54 1
  57   28   55 1
  58   28   56 1
  59   28   57 1

#	End of record

