#	Name: ASD05313014
#	Creating user name:	WinNT
#	Creation time:	15. 06. 2019 20:58

#	Modifying user name:	WinNT
#	Modification time:	15. 06. 2019 20:58

#	Program:	/corina/corina34_cracker 3.40 0067  02.08.2006

@<TRIPOS>MOLECULE
ASD05313014
  41   44    0    0    0
SMALL
NO_CHARGES


@<TRIPOS>ATOM
   1 C1            -0.2520     0.9745     1.1168 C.2     
   2 C2            -0.0267    -0.4926     0.8390 C.3     
   3 N3             0.7449     1.8930     1.1663 N.pl3   
   4 N4             1.3713    -0.6360     0.3907 N.am    
   5 C5             2.4114     0.1094     1.1158 C.3     
   6 C6             2.1634     1.6134     0.9495 C.3     
   7 N7            -1.1450     2.8453     1.5481 N.2     
   8 N8            -1.3711     1.5917     1.3513 N.2     
   9 C9             0.1468     3.0835     1.4469 C.2     
  10 C10            2.7069     5.8322     1.3080 C.ar    
  11 C11            2.1187     4.5965     1.1349 C.ar    
  12 C12            0.8183     4.3916     1.6096 C.ar    
  13 C13            0.1706     5.4587     2.2422 C.ar    
  14 C14            0.8337     6.6613     2.3721 C.ar    
  15 N15            2.0604     6.8119     1.9104 N.ar    
  16 C16            1.6866    -1.4278    -0.6534 C.2     
  17 O17            2.8282    -1.4585    -1.0700 O.2     
  18 C18            0.6446    -2.2587    -1.2917 C.ar    
  19 C19            0.5535    -2.3228    -2.6846 C.ar    
  20 C20           -0.4232    -3.1016    -3.2738 C.ar    
  21 C21           -1.3094    -3.8159    -2.4881 C.ar    
  22 C22           -1.2245    -3.7560    -1.1082 C.ar    
  23 C23           -0.2498    -2.9876    -0.5062 C.ar    
  24 C24           -0.5238    -3.1727    -4.7758 C.3     
  25 F25           -1.5805    -4.0171    -5.1329 F       
  26 F26           -0.7563    -1.8921    -5.2888 F       
  27 F27            0.6721    -3.6750    -5.3000 F       
  28 Cl28           1.6646    -1.4257    -3.6718 Cl      
  29 H29           -0.1872    -1.0723     1.7480 H       
  30 H30           -0.7051    -0.8314     0.0559 H       
  31 H31            2.3753    -0.1509     2.1737 H       
  32 H32            3.3909    -0.1450     0.7108 H       
  33 H33            2.4453     1.9200    -0.0578 H       
  34 H34            2.7585     2.1634     1.6785 H       
  35 H35            3.7118     5.9988     0.9490 H       
  36 H36            2.6537     3.7991     0.6405 H       
  37 H37           -0.8335     5.3425     2.6226 H       
  38 H38            0.3422     7.4907     2.8588 H       
  39 H39           -2.0715    -4.4231    -2.9538 H       
  40 H40           -1.9203    -4.3159    -0.5011 H       
  41 H41           -0.1820    -2.9462     0.5709 H       
@<TRIPOS>BOND
   1    1    2 1
   2    1    3 1
   3    1    8 2
   4    2    4 1
   5    2   29 1
   6    2   30 1
   7    3    6 1
   8    3    9 1
   9    4    5 1
  10    4   16 am
  11    5    6 1
  12    5   31 1
  13    5   32 1
  14    6   33 1
  15    6   34 1
  16    7    8 1
  17    7    9 2
  18    9   12 1
  19   10   11 ar
  20   10   15 ar
  21   10   35 1
  22   11   12 ar
  23   11   36 1
  24   12   13 ar
  25   13   14 ar
  26   13   37 1
  27   14   15 ar
  28   14   38 1
  29   16   17 2
  30   16   18 1
  31   18   19 ar
  32   18   23 ar
  33   19   20 ar
  34   19   28 1
  35   20   21 ar
  36   20   24 1
  37   21   22 ar
  38   21   39 1
  39   22   23 ar
  40   22   40 1
  41   23   41 1
  42   24   25 1
  43   24   26 1
  44   24   27 1

#	End of record

