#	Name: ASD01914432
#	Creating user name:	WinNT
#	Creation time:	15. 06. 2019 20:03

#	Modifying user name:	WinNT
#	Modification time:	15. 06. 2019 20:03

#	Program:	/corina/corina34_cracker 3.40 0067  02.08.2006

@<TRIPOS>MOLECULE
ASD01914432
  62   66    0    0    0
SMALL
NO_CHARGES


@<TRIPOS>ATOM
   1 C1            -2.5840     0.5353    -2.3566 C.ar    
   2 C2            -2.1916    -0.7578    -2.0713 C.ar    
   3 C3            -0.9847    -0.9895    -1.4259 C.ar    
   4 C4            -0.1743     0.0793    -1.0683 C.ar    
   5 C5            -0.5700     1.3711    -1.3551 C.ar    
   6 C6            -1.7743     1.6004    -1.9991 C.ar    
   7 N7            -0.5846    -2.3022    -1.1349 N.pl3   
   8 C8            -1.3391    -3.2625    -0.5151 C.2     
   9 C9            -0.5656    -4.3765    -0.4369 C.2     
  10 N10            0.6275    -4.0921    -0.9972 N.2     
  11 C11            0.6213    -2.8590    -1.4209 C.2     
  12 C12           -0.9629    -5.6756     0.1598 C.ar    
  13 C13           -0.0650    -6.7415     0.1734 C.ar    
  14 C14           -0.4372    -7.9478     0.7292 C.ar    
  15 C15           -1.7045    -8.1009     1.2743 C.ar    
  16 C16           -2.6011    -7.0413     1.2619 C.ar    
  17 C17           -2.2327    -5.8307     0.7131 C.ar    
  18 C18            1.7682    -2.1620    -2.1064 C.3     
  19 O19            0.7452    -3.0133    -4.0553 O.2     
  20 C20            1.6619    -2.3658    -3.5957 C.2     
  21 N21            2.5857    -1.8285    -4.4170 N.am    
  22 O22           -2.0684    -9.2909     1.8209 O.3     
  23 C23            2.5108    -2.0089    -5.8767 C.3     
  24 C24            2.3613    -0.6295    -6.5213 C.3     
  25 N25            3.3173     0.3119    -5.9545 N.am    
  26 C26            3.9018     0.1729    -4.7637 C.2     
  27 C27            3.7058    -1.0332    -3.8925 C.3     
  28 C28            3.6460     1.4413    -6.7129 C.ar    
  29 C29            4.7228     1.4013    -7.5843 C.ar    
  30 C30            5.0461     2.5301    -8.3385 C.ar    
  31 C31            4.2823     3.6919    -8.2099 C.ar    
  32 C32            3.2120     3.7210    -7.3390 C.ar    
  33 C33            2.8889     2.6011    -6.5961 C.ar    
  34 O34            4.6218     1.0639    -4.3651 O.2     
  35 C35            6.1575     2.4970    -9.2409 C.1     
  36 N36            7.0392     2.4709    -9.9568 N.1     
  37 C37           -3.3872    -9.3791     2.3639 C.3     
  38 F38           -2.1598     2.8646    -2.2789 F       
  39 H39           -3.5208     0.7158    -2.8627 H       
  40 H40           -2.8235    -1.5881    -2.3500 H       
  41 H41            0.7648    -0.0991    -0.5657 H       
  42 H42            0.0601     2.2029    -1.0767 H       
  43 H43           -2.3525    -3.1549    -0.1576 H       
  44 H44            0.9209    -6.6232    -0.2512 H       
  45 H45            0.2581    -8.7741     0.7400 H       
  46 H46           -3.5867    -7.1637     1.6862 H       
  47 H47           -2.9307    -5.0066     0.7037 H       
  48 H48            1.7318    -1.0959    -1.8820 H       
  49 H49            2.7110    -2.5764    -1.7493 H       
  50 H50            3.4229    -2.4856    -6.2356 H       
  51 H51            1.6488    -2.6272    -6.1271 H       
  52 H52            2.5341    -0.7142    -7.5941 H       
  53 H53            1.3499    -0.2609    -6.3495 H       
  54 H54            3.4869    -0.7154    -2.8731 H       
  55 H55            4.6107    -1.6406    -3.9010 H       
  56 H56            5.3099     0.4999    -7.6791 H       
  57 H57            4.5293     4.5678    -8.7914 H       
  58 H58            2.6224     4.6205    -7.2408 H       
  59 H59            2.0500     2.6299    -5.9165 H       
  60 H60           -4.1173    -9.1818     1.5790 H       
  61 H61           -3.5481   -10.3790     2.7669 H       
  62 H62           -3.5022    -8.6436     3.1602 H       
@<TRIPOS>BOND
   1    1    2 ar
   2    1    6 ar
   3    1   39 1
   4    2    3 ar
   5    2   40 1
   6    3    4 ar
   7    3    7 1
   8    4    5 ar
   9    4   41 1
  10    5    6 ar
  11    5   42 1
  12    6   38 1
  13    7    8 1
  14    7   11 1
  15    8    9 2
  16    8   43 1
  17    9   10 1
  18    9   12 1
  19   10   11 2
  20   11   18 1
  21   12   13 ar
  22   12   17 ar
  23   13   14 ar
  24   13   44 1
  25   14   15 ar
  26   14   45 1
  27   15   16 ar
  28   15   22 1
  29   16   17 ar
  30   16   46 1
  31   17   47 1
  32   18   20 1
  33   18   48 1
  34   18   49 1
  35   19   20 2
  36   20   21 am
  37   21   23 1
  38   21   27 1
  39   22   37 1
  40   23   24 1
  41   23   50 1
  42   23   51 1
  43   24   25 1
  44   24   52 1
  45   24   53 1
  46   25   26 am
  47   25   28 1
  48   26   27 1
  49   26   34 2
  50   27   54 1
  51   27   55 1
  52   28   29 ar
  53   28   33 ar
  54   29   30 ar
  55   29   56 1
  56   30   31 ar
  57   30   35 1
  58   31   32 ar
  59   31   57 1
  60   32   33 ar
  61   32   58 1
  62   33   59 1
  63   35   36 3
  64   37   60 1
  65   37   61 1
  66   37   62 1

#	End of record

