#	Name: ASD01881555
#	Creating user name:	WinNT
#	Creation time:	15. 06. 2019 19:42

#	Modifying user name:	WinNT
#	Modification time:	15. 06. 2019 19:42

#	Program:	/corina/corina34_cracker 3.40 0067  02.08.2006

@<TRIPOS>MOLECULE
ASD01881555
  52   56    0    0    0
SMALL
NO_CHARGES


@<TRIPOS>ATOM
   1 C1            -0.4143     2.0690     1.3530 C.ar    
   2 C2            -0.6506     0.8122     1.9098 C.ar    
   3 C3            -1.8932     0.5125     2.4156 C.ar    
   4 C4            -2.9309     1.4529     2.3808 C.ar    
   5 C5            -2.7016     2.7039     1.8284 C.ar    
   6 C6            -1.4380     3.0095     1.3198 C.ar    
   7 N7            -4.2380     1.2569     2.8675 N.am    
   8 S8            -5.0350     2.6892     2.5685 S.o2    
   9 N9            -3.8164     3.5679     1.8477 N.am    
  10 C10           -4.7804     0.0520     3.5002 C.3     
  11 C11            0.9211     2.4021     0.8059 C.ar    
  12 C12           -4.4532     0.0695     4.9947 C.3     
  13 C13           -5.0367    -1.0503     5.8588 C.3     
  14 C14           -3.5422    -1.0364     5.5314 C.3     
  15 C15           -3.8873     4.9416     1.3437 C.3     
  16 O16           -6.0178     2.4302     1.5754 O.2     
  17 C17            1.0401     2.9539    -0.4843 C.ar    
  18 C18            2.3050     3.2640    -0.9900 C.ar    
  19 C19            3.4279     3.0302    -0.2282 C.ar    
  20 C20            3.3120     2.4846     1.0466 C.ar    
  21 C21            2.0638     2.1770     1.5656 C.ar    
  22 O22            4.4264     2.2577     1.7881 O.3     
  23 C23            5.0174     1.0394     1.6937 C.ar    
  24 C24            6.0984     0.7059     2.5068 C.ar    
  25 C25            4.5546     0.0911     0.7866 C.ar    
  26 C26            5.1894    -1.1466     0.7218 C.ar    
  27 N27            6.2213    -1.4193     1.5133 N.ar    
  28 C28            6.6768    -0.5435     2.3847 C.ar    
  29 O29           -5.3097     3.2937     3.8249 O.2     
  30 F30           -5.4146    -0.7270     7.1664 F       
  31 F31           -5.8290    -2.0114     5.2219 F       
  32 C32            4.7259    -2.1343    -0.2057 C.1     
  33 N33            4.3582    -2.9178    -0.9414 N.1     
  34 C34           -0.1296     3.1954    -1.2743 C.1     
  35 N35           -1.0575     3.3870    -1.9010 N.1     
  36 H36            0.1398     0.0770     1.9432 H       
  37 H37           -2.0720    -0.4620     2.8455 H       
  38 H38           -1.2561     3.9829     0.8888 H       
  39 H39           -5.8617     0.0262     3.3653 H       
  40 H40           -4.3358    -0.8310     3.0412 H       
  41 H41           -4.3641     1.0581     5.4449 H       
  42 H42           -3.1760    -1.7764     4.8198 H       
  43 H43           -2.8534    -0.7754     6.3348 H       
  44 H44           -3.6146     5.6350     2.1393 H       
  45 H45           -3.1974     5.0581     0.5079 H       
  46 H46           -4.9027     5.1539     1.0089 H       
  47 H47            2.4022     3.6870    -1.9789 H       
  48 H48            4.4040     3.2712    -0.6225 H       
  49 H49            1.9797     1.7540     2.5557 H       
  50 H50            6.4807     1.4164     3.2247 H       
  51 H51            3.7158     0.3115     0.1430 H       
  52 H52            7.5180    -0.8036     3.0102 H       
@<TRIPOS>BOND
   1    1    2 ar
   2    1   11 1
   3    1    6 ar
   4    2    3 ar
   5    2   36 1
   6    3    4 ar
   7    3   37 1
   8    4    5 ar
   9    4    7 1
  10    5    6 ar
  11    5    9 1
  12    6   38 1
  13    7    8 am
  14    7   10 1
  15    8    9 am
  16    8   16 2
  17    8   29 2
  18    9   15 1
  19   10   12 1
  20   10   39 1
  21   10   40 1
  22   11   17 ar
  23   11   21 ar
  24   12   13 1
  25   12   14 1
  26   12   41 1
  27   13   30 1
  28   13   31 1
  29   13   14 1
  30   14   42 1
  31   14   43 1
  32   15   44 1
  33   15   45 1
  34   15   46 1
  35   17   34 1
  36   17   18 ar
  37   18   19 ar
  38   18   47 1
  39   19   20 ar
  40   19   48 1
  41   20   21 ar
  42   20   22 1
  43   21   49 1
  44   22   23 1
  45   23   24 ar
  46   23   25 ar
  47   24   28 ar
  48   24   50 1
  49   25   26 ar
  50   25   51 1
  51   26   32 1
  52   26   27 ar
  53   27   28 ar
  54   28   52 1
  55   32   33 3
  56   34   35 3

#	End of record

