#	Name: ASD01810034
#	Creating user name:	WinNT
#	Creation time:	15. 06. 2019 19:23

#	Modifying user name:	WinNT
#	Modification time:	15. 06. 2019 19:23

#	Program:	/corina/corina34_cracker 3.40 0067  02.08.2006

@<TRIPOS>MOLECULE
ASD01810034
  45   49    0    0    0
SMALL
NO_CHARGES


@<TRIPOS>ATOM
   1 N1            -0.0163     1.3479     0.0095 N.am    
   2 C2             0.0021    -0.0041     0.0020 C.2     
   3 C3            -1.2677    -0.7369    -0.3570 C.3     
   4 C4            -2.5159    -0.1233     0.2728 C.3     
   5 C5            -2.5121     1.3736     0.1209 C.ar    
   6 C6            -1.2660     1.9814     0.0316 C.ar    
   7 C7            -3.6303     2.1624     0.0680 C.ar    
   8 C8            -3.5021     3.5492    -0.0484 C.ar    
   9 C9            -2.2634     4.1501    -0.0990 C.ar    
  10 C10           -1.1107     3.3589    -0.0516 C.ar    
  11 C11            0.9572     2.3080     0.0053 C.ar    
  12 C12            0.3365     3.5841    -0.0418 C.ar    
  13 C13            1.0869     4.7589    -0.0674 C.ar    
  14 C14            2.4684     4.6286    -0.0387 C.ar    
  15 C15            3.0801     3.3801     0.0133 C.ar    
  16 C16            2.3460     2.2022     0.0390 C.ar    
  17 C17           -4.7711     4.3616    -0.1220 C.3     
  18 C18           -4.4753     5.8282     0.1893 C.3     
  19 N19           -3.3512     6.2671    -0.6530 N.3     
  20 C20           -2.1051     5.6438    -0.1970 C.3     
  21 O21            1.0141    -0.6130     0.2767 O.2     
  22 O22            4.4378     3.3118     0.0424 O.3     
  23 O23            3.2422     5.7475    -0.0623 O.3     
  24 C24            2.5641     7.0042    -0.1161 C.3     
  25 C25            5.0208     2.0082     0.0956 C.3     
  26 H26           -1.3823    -0.7284    -1.4409 H       
  27 H27           -1.1806    -1.7714    -0.0249 H       
  28 H28           -3.4011    -0.5309    -0.2155 H       
  29 H29           -2.5438    -0.3760     1.3327 H       
  30 H30           -4.6111     1.7128     0.1159 H       
  31 H31            0.6135     5.7287    -0.1083 H       
  32 H32            2.8334     1.2393     0.0799 H       
  33 H33           -5.1929     4.2829    -1.1240 H       
  34 H34           -5.4894     3.9763     0.6016 H       
  35 H35           -5.3549     6.4336    -0.0294 H       
  36 H36           -4.2076     5.9326     1.2408 H       
  37 H37           -3.5250     6.0591    -1.6249 H       
  38 H38           -1.8418     6.0422     0.7829 H       
  39 H39           -1.3082     5.8750    -0.9039 H       
  40 H40            3.2961     7.8117    -0.1301 H       
  41 H41            1.9552     7.0501    -1.0190 H       
  42 H42            1.9237     7.1094     0.7597 H       
  43 H43            4.6824     1.4953     0.9958 H       
  44 H44            4.7177     1.4385    -0.7829 H       
  45 H45            6.1071     2.0965     0.1143 H       
@<TRIPOS>BOND
   1    1    2 am
   2    1   11 1
   3    1    6 1
   4    2    3 1
   5    2   21 2
   6    3    4 1
   7    3   26 1
   8    3   27 1
   9    4    5 1
  10    4   28 1
  11    4   29 1
  12    5    6 ar
  13    5    7 ar
  14    6   10 ar
  15    7    8 ar
  16    7   30 1
  17    8    9 ar
  18    8   17 1
  19    9   10 ar
  20    9   20 1
  21   10   12 1
  22   11   12 ar
  23   11   16 ar
  24   12   13 ar
  25   13   14 ar
  26   13   31 1
  27   14   15 ar
  28   14   23 1
  29   15   16 ar
  30   15   22 1
  31   16   32 1
  32   17   18 1
  33   17   33 1
  34   17   34 1
  35   18   19 1
  36   18   35 1
  37   18   36 1
  38   19   20 1
  39   19   37 1
  40   20   38 1
  41   20   39 1
  42   22   25 1
  43   23   24 1
  44   24   40 1
  45   24   41 1
  46   24   42 1
  47   25   43 1
  48   25   44 1
  49   25   45 1

#	End of record

