#	Name: ASD01900712
#	Creating user name:	WinNT
#	Creation time:	15. 06. 2019 19:52

#	Modifying user name:	WinNT
#	Modification time:	15. 06. 2019 19:52

#	Program:	/corina/corina34_cracker 3.40 0067  02.08.2006

@<TRIPOS>MOLECULE
ASD01900712
  56   60    0    0    0
SMALL
NO_CHARGES


@<TRIPOS>ATOM
   1 C1            -1.2905     2.1873    -0.5283 C.ar    
   2 C2            -1.3278     0.8055    -0.3889 C.ar    
   3 C3            -2.5117     0.1144    -0.5484 C.ar    
   4 C4            -3.6815     0.7985    -0.8510 C.ar    
   5 C5            -3.6409     2.1918    -0.9950 C.ar    
   6 O6            -4.8475     0.1320    -0.9979 O.3     
   7 C7            -5.9207     0.7028    -1.5724 C.2     
   8 C8            -6.0257     2.0427    -1.7621 C.2     
   9 C9            -4.9044     2.8962    -1.3320 C.2     
  10 C10           -7.0276    -0.1613    -2.0144 C.2     
  11 N11           -8.1235     0.3842    -2.5970 N.2     
  12 C12           -9.1215    -0.3419    -3.0010 C.2     
  13 N13           -9.1192    -1.7023    -2.8589 N.pl3   
  14 C14           -8.0304    -2.3227    -2.2718 C.2     
  15 C15           -6.9483    -1.5329    -1.8405 C.2     
  16 C16           -2.4499     2.8851    -0.8262 C.ar    
  17 C17          -10.0249    -2.6625    -3.1942 C.2     
  18 C18           -9.5373    -3.8749    -2.8344 C.2     
  19 C19           -8.2814    -3.6819    -2.2514 C.2     
  20 O20           -0.1174     2.8555    -0.3668 O.3     
  21 C21            1.0371     2.0732    -0.0549 C.3     
  22 C22            2.2521     2.9920     0.0883 C.3     
  23 N23            2.0629     3.8774     1.2451 N.3     
  24 C24            3.2486     4.7173     1.4649 C.3     
  25 C25            2.9816     5.6781     2.6260 C.3     
  26 N26            2.6561     4.9055     3.8329 N.3     
  27 C27            1.4705     4.0655     3.6131 C.3     
  28 C28            1.7374     3.1047     2.4520 C.3     
  29 C29            2.4669     5.7908     4.9897 C.3     
  30 N30           -5.0155     4.2009    -1.2511 N.2     
  31 O31           -3.9481     4.9714    -0.7295 O.3     
  32 H32           -0.4217     0.2670    -0.1538 H       
  33 H33           -2.5282    -0.9598    -0.4382 H       
  34 H34           -6.9068     2.4714    -2.2163 H       
  35 H35           -9.9728     0.1394    -3.4592 H       
  36 H36           -6.0825    -1.9838    -1.3787 H       
  37 H37           -2.4255     3.9593    -0.9352 H       
  38 H38          -10.9783    -2.4862    -3.6699 H       
  39 H39          -10.0326    -4.8245    -2.9738 H       
  40 H40           -7.6307    -4.4494    -1.8591 H       
  41 H41            0.8725     1.5399     0.8813 H       
  42 H42            1.2167     1.3554    -0.8553 H       
  43 H43            3.1483     2.3890     0.2350 H       
  44 H44            2.3620     3.5925    -0.8147 H       
  45 H45            4.1029     4.0847     1.7055 H       
  46 H46            3.4618     5.2889     0.5616 H       
  47 H47            3.8701     6.2823     2.8096 H       
  48 H48            2.1444     6.3291     2.3742 H       
  49 H49            1.2572     3.4939     4.5164 H       
  50 H50            0.6161     4.6981     3.3725 H       
  51 H51            0.8489     2.5005     2.2684 H       
  52 H52            2.5746     2.4537     2.7038 H       
  53 H53            1.6500     6.4836     4.7873 H       
  54 H54            2.2271     5.1933     5.8692 H       
  55 H55            3.3832     6.3527     5.1710 H       
  56 H56           -4.1224     5.9223    -0.7096 H       
@<TRIPOS>BOND
   1    1    2 ar
   2    1   20 1
   3    1   16 ar
   4    2    3 ar
   5    2   32 1
   6    3    4 ar
   7    3   33 1
   8    4    5 ar
   9    4    6 1
  10    5   16 ar
  11    5    9 1
  12    6    7 1
  13    7    8 2
  14    7   10 1
  15    8    9 1
  16    8   34 1
  17    9   30 2
  18   10   11 1
  19   10   15 2
  20   11   12 2
  21   12   13 1
  22   12   35 1
  23   13   14 1
  24   13   17 1
  25   14   15 1
  26   14   19 2
  27   15   36 1
  28   16   37 1
  29   17   18 2
  30   17   38 1
  31   18   19 1
  32   18   39 1
  33   19   40 1
  34   20   21 1
  35   21   22 1
  36   21   41 1
  37   21   42 1
  38   22   23 1
  39   22   43 1
  40   22   44 1
  41   23   24 1
  42   23   28 1
  43   24   25 1
  44   24   45 1
  45   24   46 1
  46   25   26 1
  47   25   47 1
  48   25   48 1
  49   26   27 1
  50   26   29 1
  51   27   28 1
  52   27   49 1
  53   27   50 1
  54   28   51 1
  55   28   52 1
  56   29   53 1
  57   29   54 1
  58   29   55 1
  59   30   31 1
  60   31   56 1

#	End of record

