#	Name: ASD05143020
#	Creating user name:	WinNT
#	Creation time:	15. 06. 2019 20:57

#	Modifying user name:	WinNT
#	Modification time:	15. 06. 2019 20:57

#	Program:	/corina/corina34_cracker 3.40 0067  02.08.2006

@<TRIPOS>MOLECULE
ASD05143020
 146  149    0    0    0
SMALL
NO_CHARGES


@<TRIPOS>ATOM
   1 C1            -2.1027     5.4117     7.5424 C.2     
   2 C2            -1.6168     4.6756     8.7643 C.3     
   3 N3            -1.2152     5.9465     6.6805 N.am    
   4 O4            -3.2923     5.5186     7.3320 O.2     
   5 C5            -1.6876     6.6621     5.4926 C.3     
   6 C6            -2.5212     5.7165     4.6255 C.3     
   7 C7            -2.5353     7.8339     5.9161 C.2     
   8 C8            -1.6294     4.5931     4.0933 C.3     
   9 C9            -2.4630     3.6475     3.2262 C.3     
  10 N10           -1.6091     2.5718     2.7165 N.pl3   
  11 C11           -2.1418     1.5956     1.9081 C.2     
  12 N12           -1.3404     0.5861     1.4298 N.pl3   
  13 N13           -3.4067     1.6273     1.5951 N.2     
  14 O14           -3.0276     7.8571     7.0243 O.2     
  15 N15           -2.7462     8.8561     5.0634 N.am    
  16 C16           -3.5702     9.9952     5.4751 C.3     
  17 C17           -2.6673    11.1869     5.8000 C.3     
  18 C18           -1.5110    10.7242     6.6884 C.3     
  19 C19           -0.3701    10.2531     5.8240 C.2     
  20 O20           -0.5730     9.5211     4.8786 O.2     
  21 N21            0.8971    10.6662     6.1248 N.am    
  22 C22            1.9602    10.1532     5.2308 C.3     
  23 C23            2.1101    11.1115     4.0476 C.3     
  24 C24            2.7733    10.3789     2.8795 C.3     
  25 C25            3.7315    11.3292     2.1586 C.3     
  26 N26            3.6796    11.0493     0.7096 N.am    
  27 C27            5.1342    11.1120     2.6650 C.2     
  28 N28            5.5220    11.6627     3.8324 N.am    
  29 O29            5.9140    10.4417     2.0220 O.2     
  30 C30            2.8532    11.8360    -0.0325 C.2     
  31 O31            2.2094    12.7187     0.4940 O.2     
  32 C32            2.7487    11.5967    -1.5167 C.3     
  33 N33            1.5338    12.2784    -2.0195 N.am    
  34 C34            3.9842    12.1655    -2.2172 C.3     
  35 C35            0.4807    11.4582    -2.3108 C.2     
  36 O36            0.5724    10.2581    -2.1614 O.2     
  37 C37           -0.7972    12.0730    -2.8208 C.3     
  38 N38           -1.9239    11.1805    -2.4830 N.am    
  39 C39           -1.0085    13.4373    -2.1614 C.3     
  40 C40           -3.0284    11.7696    -1.9477 C.2     
  41 O41           -3.0579    12.9678    -1.7627 O.2     
  42 C42           -4.2140    10.9113    -1.5889 C.3     
  43 C43            3.9358    11.8173    -3.6826 C.2     
  44 C44            3.2373    12.5624    -4.7327 C.ar    
  45 C45            3.4749    11.8626    -5.9296 C.ar    
  46 N46            4.2602    10.7761    -5.6157 N.pl3   
  47 C47            4.5294    10.7687    -4.2742 C.2     
  48 C48            2.4604    13.7226    -4.7464 C.ar    
  49 C49            1.9343    14.1726    -5.9242 C.ar    
  50 C50            2.1655    13.4853    -7.1081 C.ar    
  51 C51            2.9296    12.3392    -7.1175 C.ar    
  52 N52           -4.7995    11.4150    -0.3256 N.am    
  53 C53           -3.7607     9.4619    -1.4026 C.3     
  54 C54           -4.9591     8.5933    -1.1189 C.ar    
  55 C55           -5.9886     8.5159    -2.0386 C.ar    
  56 C56           -7.0882     7.7204    -1.7809 C.ar    
  57 C57           -7.1590     6.9989    -0.5981 C.ar    
  58 C58           -6.1248     7.0783     0.3232 C.ar    
  59 C59           -5.0247     7.8709     0.0582 C.ar    
  60 C60           -4.5088    10.3669     4.3560 C.2     
  61 N61           -3.9922    10.8522     3.1937 N.am    
  62 O62           -5.7071    10.2352     4.4888 O.2     
  63 C63           -4.9602    11.1993     2.1342 C.3     
  64 C64           -5.1820    12.7131     2.1183 C.3     
  65 C65           -4.4058    10.7563     0.8048 C.2     
  66 C66           -5.8449    13.1451     3.4278 C.3     
  67 N67           -6.0579    14.5985     3.4126 N.3     
  68 O68           -3.6243     9.8311     0.7394 O.2     
  69 C69           -1.0182    13.2726    -0.6404 C.3     
  70 C70           -1.3761    14.6081     0.0149 C.3     
  71 N71           -1.3854    14.4503     1.4714 N.pl3   
  72 C72           -1.6826    15.5239     2.2772 C.2     
  73 N73           -1.9710    16.7455     1.7162 N.pl3   
  74 N74           -1.6908    15.3836     3.5730 N.2     
  75 O75           -8.2399     6.2160    -0.3420 O.3     
  76 H76           -0.5269     4.6791     8.7811 H       
  77 H77           -1.9956     5.1682     9.6598 H       
  78 H78           -1.9764     3.6470     8.7358 H       
  79 H79           -0.2637     5.8575     6.8467 H       
  80 H80           -0.8320     7.0205     4.9203 H       
  81 H81           -3.3258     5.2891     5.2240 H       
  82 H82           -2.9460     6.2707     3.7885 H       
  83 H83           -0.8249     5.0205     3.4948 H       
  84 H84           -1.2046     4.0389     4.9303 H       
  85 H85           -3.2676     3.2201     3.8246 H       
  86 H86           -2.8878     4.2017     2.3892 H       
  87 H87           -0.6677     2.5482     2.9494 H       
  88 H88           -0.3991     0.5625     1.6627 H       
  89 H89           -1.7163    -0.1026     0.8594 H       
  90 H90           -3.7826     0.9386     1.0248 H       
  91 H91           -2.3524     8.8375     4.1772 H       
  92 H92           -4.1478     9.7253     6.3592 H       
  93 H93           -2.2700    11.6045     4.8748 H       
  94 H94           -3.2453    11.9485     6.3234 H       
  95 H95           -1.1765    11.5542     7.3109 H       
  96 H96           -1.8468     9.9054     7.3247 H       
  97 H97            1.0870    11.2549     6.8719 H       
  98 H98            2.9017    10.0967     5.7772 H       
  99 H99            1.6858     9.1631     4.8670 H       
 100 H100           1.1264    11.4679     3.7416 H       
 101 H101           2.7282    11.9594     4.3427 H       
 102 H102           3.3287     9.5206     3.2574 H       
 103 H103           2.0075    10.0378     2.1828 H       
 104 H104           3.4303    12.3605     2.3424 H       
 105 H105           4.2069    10.3413     0.3075 H       
 106 H106           4.8983    12.1988     4.3466 H       
 107 H107           6.4248    11.5229     4.1583 H       
 108 H108           2.6747    10.5266    -1.7106 H       
 109 H109           1.4891    13.2405    -2.1344 H       
 110 H110           4.0007    13.2493    -2.1016 H       
 111 H111           4.8830    11.7389    -1.7719 H       
 112 H112          -0.7383    12.1933    -3.9025 H       
 113 H113          -1.8792    10.2234    -2.6344 H       
 114 H114          -0.1997    14.1090    -2.4490 H       
 115 H115          -1.9610    13.8550    -2.4878 H       
 116 H116          -4.9580    10.9648    -2.3837 H       
 117 H117           4.5784    10.1162    -6.2516 H       
 118 H118           5.1248    10.0250    -3.7654 H       
 119 H119           2.2757    14.2620    -3.8292 H       
 120 H120           1.3334    15.0700    -5.9344 H       
 121 H121           1.7426    13.8533    -8.0312 H       
 122 H122           3.1040    11.8119    -8.0437 H       
 123 H123          -5.4191    12.1609    -0.3021 H       
 124 H124          -3.2679     9.1157    -2.3111 H       
 125 H125          -3.0638     9.4038    -0.5665 H       
 126 H126          -5.9331     9.0780    -2.9591 H       
 127 H127          -7.8922     7.6605    -2.4994 H       
 128 H128          -6.1775     6.5176     1.2447 H       
 129 H129          -4.2193     7.9330     0.7750 H       
 130 H130          -3.0369    10.9644     3.0682 H       
 131 H131          -5.9068    10.6935     2.3242 H       
 132 H132          -4.2228    13.2198     2.0123 H       
 133 H133          -5.8270    12.9771     1.2802 H       
 134 H134          -6.8042    12.6384     3.5339 H       
 135 H135          -5.2000    12.8811     4.2659 H       
 136 H136          -6.4950    14.9089     4.2675 H       
 137 H137          -5.1913    15.0893     3.2507 H       
 138 H138          -1.7568    12.5213    -0.3610 H       
 139 H139          -0.0315    12.9552    -0.3030 H       
 140 H140          -0.6375    15.3594    -0.2644 H       
 141 H141          -2.3628    14.9254    -0.3224 H       
 142 H142          -1.1820    13.5885     1.8672 H       
 143 H143          -1.9648    16.8500     0.7519 H       
 144 H144          -2.1806    17.5030     2.2847 H       
 145 H145          -1.9005    16.1411     4.1415 H       
 146 H146          -8.1515     5.3071    -0.6601 H       
@<TRIPOS>BOND
   1    1    2 1
   2    1    3 am
   3    1    4 2
   4    2   76 1
   5    2   77 1
   6    2   78 1
   7    3    5 1
   8    3   79 1
   9    5    6 1
  10    5    7 1
  11    5   80 1
  12    6    8 1
  13    6   81 1
  14    6   82 1
  15    7   14 2
  16    7   15 am
  17    8    9 1
  18    8   83 1
  19    8   84 1
  20    9   10 1
  21    9   85 1
  22    9   86 1
  23   10   11 1
  24   10   87 1
  25   11   12 1
  26   11   13 2
  27   12   88 1
  28   12   89 1
  29   13   90 1
  30   15   16 1
  31   15   91 1
  32   16   17 1
  33   16   60 1
  34   16   92 1
  35   17   18 1
  36   17   93 1
  37   17   94 1
  38   18   19 1
  39   18   95 1
  40   18   96 1
  41   19   20 2
  42   19   21 am
  43   21   22 1
  44   21   97 1
  45   22   23 1
  46   22   98 1
  47   22   99 1
  48   23   24 1
  49   23  100 1
  50   23  101 1
  51   24   25 1
  52   24  102 1
  53   24  103 1
  54   25   26 1
  55   25   27 1
  56   25  104 1
  57   26   30 am
  58   26  105 1
  59   27   28 am
  60   27   29 2
  61   28  106 1
  62   28  107 1
  63   30   31 2
  64   30   32 1
  65   32   33 1
  66   32   34 1
  67   32  108 1
  68   33   35 am
  69   33  109 1
  70   34   43 1
  71   34  110 1
  72   34  111 1
  73   35   36 2
  74   35   37 1
  75   37   38 1
  76   37   39 1
  77   37  112 1
  78   38   40 am
  79   38  113 1
  80   39   69 1
  81   39  114 1
  82   39  115 1
  83   40   41 2
  84   40   42 1
  85   42   52 1
  86   42   53 1
  87   42  116 1
  88   43   44 1
  89   43   47 2
  90   44   45 ar
  91   44   48 ar
  92   45   46 1
  93   45   51 ar
  94   46   47 1
  95   46  117 1
  96   47  118 1
  97   48   49 ar
  98   48  119 1
  99   49   50 ar
 100   49  120 1
 101   50   51 ar
 102   50  121 1
 103   51  122 1
 104   52   65 am
 105   52  123 1
 106   53   54 1
 107   53  124 1
 108   53  125 1
 109   54   55 ar
 110   54   59 ar
 111   55   56 ar
 112   55  126 1
 113   56   57 ar
 114   56  127 1
 115   57   58 ar
 116   57   75 1
 117   58   59 ar
 118   58  128 1
 119   59  129 1
 120   60   61 am
 121   60   62 2
 122   61   63 1
 123   61  130 1
 124   63   64 1
 125   63   65 1
 126   63  131 1
 127   64   66 1
 128   64  132 1
 129   64  133 1
 130   65   68 2
 131   66   67 1
 132   66  134 1
 133   66  135 1
 134   67  136 1
 135   67  137 1
 136   69   70 1
 137   69  138 1
 138   69  139 1
 139   70   71 1
 140   70  140 1
 141   70  141 1
 142   71   72 1
 143   71  142 1
 144   72   73 1
 145   72   74 2
 146   73  143 1
 147   73  144 1
 148   74  145 1
 149   75  146 1

#	End of record

