#	Name: ASD00461006
#	Creating user name:	WinNT
#	Creation time:	15. 06. 2019 18:36

#	Modifying user name:	WinNT
#	Modification time:	15. 06. 2019 18:36

#	Program:	/corina/corina34_cracker 3.40 0067  02.08.2006

@<TRIPOS>MOLECULE
ASD00461006
  41   44    0    0    0
SMALL
NO_CHARGES


@<TRIPOS>ATOM
   1 C1             2.6086     2.0300    -1.4923 C.ar    
   2 C2             3.0702     0.7875    -1.8048 C.ar    
   3 C3             1.8712     2.2437    -0.3361 C.ar    
   4 C4             2.8059    -0.3066    -0.9561 C.ar    
   5 C5             1.5982     1.1941     0.5117 C.ar    
   6 N6             3.1661    -1.5981    -1.0805 N.2     
   7 C7             2.0620    -0.0842     0.2079 C.ar    
   8 C8             2.7992    -2.4118    -0.1639 C.2     
   9 S9             1.8989    -1.6213     1.0513 S.3     
  10 C10            3.1208    -3.8840    -0.1586 C.3     
  11 O11            2.5550    -4.4994    -1.3176 O.3     
  12 C12            4.6389    -4.0745    -0.1699 C.3     
  13 C13            2.5440    -4.5198     1.0800 C.ar    
  14 C14            1.5238    -5.4458     0.9703 C.ar    
  15 C15            0.9945    -6.0290     2.1067 C.ar    
  16 C16            1.4859    -5.6864     3.3522 C.ar    
  17 C17            2.5070    -4.7608     3.4618 C.ar    
  18 C18            3.0391    -4.1809     2.3256 C.ar    
  19 C19            0.9083    -6.3213     4.5909 C.3     
  20 C20            4.1521    -3.1720     2.4451 C.3     
  21 C21            5.4090    -3.5402    -1.3791 C.3     
  22 C22            5.5088    -2.8236    -0.0310 C.3     
  23 H23            2.8226     2.8597    -2.1497 H       
  24 H24            3.6421     0.6393    -2.7089 H       
  25 H25            1.5116     3.2346    -0.1010 H       
  26 H26            1.0250     1.3613     1.4116 H       
  27 H27            1.5932    -4.4176    -1.3764 H       
  28 H28            5.0008    -4.9933     0.2914 H       
  29 H29            1.1398    -5.7135    -0.0029 H       
  30 H30            0.1968    -6.7520     2.0210 H       
  31 H31            2.8908    -4.4928     4.4351 H       
  32 H32            1.4615    -7.2311     4.8245 H       
  33 H33            0.9852    -5.6249     5.4258 H       
  34 H34           -0.1394    -6.5674     4.4183 H       
  35 H35            5.1116    -3.6721     2.3126 H       
  36 H36            4.0325    -2.4066     1.6784 H       
  37 H37            4.1174    -2.7077     3.4306 H       
  38 H38            6.2778    -4.1073    -1.7132 H       
  39 H39            4.8341    -3.0530    -2.1667 H       
  40 H40            4.9997    -1.8649     0.0683 H       
  41 H41            6.4434    -2.9193     0.5218 H       
@<TRIPOS>BOND
   1    1    2 ar
   2    1    3 ar
   3    1   23 1
   4    2    4 ar
   5    2   24 1
   6    3    5 ar
   7    3   25 1
   8    4    6 1
   9    4    7 ar
  10    5    7 ar
  11    5   26 1
  12    6    8 2
  13    7    9 1
  14    8   10 1
  15    8    9 1
  16   10   11 1
  17   10   12 1
  18   10   13 1
  19   11   27 1
  20   12   21 1
  21   12   22 1
  22   12   28 1
  23   13   14 ar
  24   13   18 ar
  25   14   15 ar
  26   14   29 1
  27   15   16 ar
  28   15   30 1
  29   16   17 ar
  30   16   19 1
  31   17   18 ar
  32   17   31 1
  33   18   20 1
  34   19   32 1
  35   19   33 1
  36   19   34 1
  37   20   35 1
  38   20   36 1
  39   20   37 1
  40   21   22 1
  41   21   38 1
  42   21   39 1
  43   22   40 1
  44   22   41 1

#	End of record

