#	Name: ASD01028705
#	Creating user name:	WinNT
#	Creation time:	15. 06. 2019 18:58

#	Modifying user name:	WinNT
#	Modification time:	15. 06. 2019 18:58

#	Program:	/corina/corina34_cracker 3.40 0067  02.08.2006

@<TRIPOS>MOLECULE
ASD01028705
  41   45    0    0    0
SMALL
NO_CHARGES


@<TRIPOS>ATOM
   1 C1            -0.0170     1.4001     0.0097 C.ar    
   2 C2             0.0021    -0.0041     0.0020 C.ar    
   3 N3             1.1576    -0.6607    -0.0125 N.ar    
   4 C4             2.3122    -0.0167    -0.0201 C.ar    
   5 C5             2.3580     1.3812    -0.0125 C.ar    
   6 C6             1.1902     2.0968     0.0020 C.ar    
   7 O7            -1.3086     1.7826     0.0295 O.3     
   8 N8            -2.1353     0.6360     0.0347 N.2     
   9 C9            -1.4016    -0.4332     0.0131 C.2     
  10 C10            3.5790    -0.7888    -0.0363 C.ar    
  11 C11            4.8030    -0.1231    -0.0386 C.ar    
  12 C12           -1.8989    -1.8558     0.0102 C.3     
  13 C13           -3.4058    -1.8611     0.0245 C.ar    
  14 C14           -4.1049    -1.8570    -1.1810 C.ar    
  15 C15           -5.4655    -1.8621    -1.2037 C.ar    
  16 C16           -6.1833    -1.8716     0.0051 C.ar    
  17 C17           -5.4704    -1.8757     1.2295 C.ar    
  18 C18           -4.0662    -1.8755     1.2149 C.ar    
  19 N19           -7.5201    -1.8762     0.0137 N.ar    
  20 C20           -8.1943    -1.8847     1.1378 C.ar    
  21 C21           -7.5553    -1.8888     2.3759 C.ar    
  22 C22           -6.1909    -1.8853     2.4388 C.ar    
  23 F23           -1.4412    -2.5075    -1.1400 F       
  24 F24           -1.4194    -2.5197     1.1444 F       
  25 C25            3.5482    -2.1817    -0.0435 C.ar    
  26 C26            4.7311    -2.8972    -0.0586 C.ar    
  27 C27            5.9456    -2.2312    -0.0667 C.ar    
  28 C28            5.9810    -0.8467    -0.0538 C.ar    
  29 F29            4.7025    -4.2478    -0.0651 F       
  30 F30            7.1683    -0.2022    -0.0622 F       
  31 H31            3.3088     1.8934    -0.0181 H       
  32 H32            1.2045     3.1767     0.0080 H       
  33 H33            4.8315     0.9564    -0.0289 H       
  34 H34           -3.5580    -1.8494    -2.1123 H       
  35 H35           -5.9919    -1.8585    -2.1467 H       
  36 H36           -3.5134    -1.8790     2.1427 H       
  37 H37           -9.2738    -1.8882     1.1034 H       
  38 H38           -8.1382    -1.8954     3.2851 H       
  39 H39           -5.6791    -1.8887     3.3898 H       
  40 H40            2.6017    -2.7018    -0.0368 H       
  41 H41            6.8677    -2.7933    -0.0781 H       
@<TRIPOS>BOND
   1    1    2 ar
   2    1    6 ar
   3    1    7 1
   4    2    3 ar
   5    2    9 1
   6    3    4 ar
   7    4    5 ar
   8    4   10 1
   9    5    6 ar
  10    5   31 1
  11    6   32 1
  12    7    8 1
  13    8    9 2
  14    9   12 1
  15   10   25 ar
  16   10   11 ar
  17   11   28 ar
  18   11   33 1
  19   12   13 1
  20   12   23 1
  21   12   24 1
  22   13   14 ar
  23   13   18 ar
  24   14   15 ar
  25   14   34 1
  26   15   16 ar
  27   15   35 1
  28   16   17 ar
  29   16   19 ar
  30   17   18 ar
  31   17   22 ar
  32   18   36 1
  33   19   20 ar
  34   20   21 ar
  35   20   37 1
  36   21   22 ar
  37   21   38 1
  38   22   39 1
  39   25   26 ar
  40   25   40 1
  41   26   27 ar
  42   26   29 1
  43   27   28 ar
  44   27   41 1
  45   28   30 1

#	End of record

