#	Name: ASD01150259
#	Creating user name:	WinNT
#	Creation time:	15. 06. 2019 19:03

#	Modifying user name:	WinNT
#	Modification time:	15. 06. 2019 19:03

#	Program:	/corina/corina34_cracker 3.40 0067  02.08.2006

@<TRIPOS>MOLECULE
ASD01150259
  26   26    0    0    0
SMALL
NO_CHARGES


@<TRIPOS>ATOM
   1 C1            -0.3816     1.4923     0.6877 C.2     
   2 N2            -1.1104     2.2735    -0.1663 N.pl3   
   3 C3            -2.3635     1.8409    -0.6126 C.ar    
   4 C4            -3.3730     2.7638    -0.8536 C.ar    
   5 C5            -4.6092     2.3334    -1.2942 C.ar    
   6 C6            -4.8423     0.9853    -1.4953 C.ar    
   7 C7            -3.8393     0.0639    -1.2562 C.ar    
   8 C8            -2.5991     0.4882    -0.8210 C.ar    
   9 N9             0.9756     1.6357     0.7547 N.pl3   
  10 N10           -0.9905     0.6028     1.4519 N.2     
  11 C11           -2.3437     0.5799     1.5185 C.1     
  12 C12            1.7425     0.8898     1.7556 C.3     
  13 C13            1.6640     2.5354    -0.1743 C.3     
  14 N14           -3.4782     0.5607     1.5744 N.1     
  15 H15           -0.7583     3.1274    -0.4624 H       
  16 H16           -3.1917     3.8168    -0.6964 H       
  17 H17           -5.3947     3.0505    -1.4815 H       
  18 H18           -5.8099     0.6513    -1.8395 H       
  19 H19           -4.0245    -0.9883    -1.4143 H       
  20 H20           -1.8160    -0.2319    -0.6348 H       
  21 H21            1.0646     0.2782     2.3510 H       
  22 H22            2.4661     0.2471     1.2541 H       
  23 H23            2.2674     1.5891     2.4065 H       
  24 H24            1.7767     3.5167     0.2866 H       
  25 H25            2.6477     2.1300    -0.4110 H       
  26 H26            1.0796     2.6289    -1.0896 H       
@<TRIPOS>BOND
   1    1    9 1
   2    1   10 2
   3    1    2 1
   4    2    3 1
   5    2   15 1
   6    3    4 ar
   7    3    8 ar
   8    4    5 ar
   9    4   16 1
  10    5    6 ar
  11    5   17 1
  12    6    7 ar
  13    6   18 1
  14    7    8 ar
  15    7   19 1
  16    8   20 1
  17    9   12 1
  18    9   13 1
  19   10   11 1
  20   11   14 3
  21   12   21 1
  22   12   22 1
  23   12   23 1
  24   13   24 1
  25   13   25 1
  26   13   26 1

#	End of record

