#	Name: ASD01890459
#	Creating user name:	WinNT
#	Creation time:	15. 06. 2019 19:51

#	Modifying user name:	WinNT
#	Modification time:	15. 06. 2019 19:51

#	Program:	/corina/corina34_cracker 3.40 0067  02.08.2006

@<TRIPOS>MOLECULE
ASD01890459
  40   42    0    0    0
SMALL
NO_CHARGES


@<TRIPOS>ATOM
   1 C1            -0.0184     1.5028     0.0103 C.2     
   2 C2             0.0021    -0.0041     0.0020 C.3     
   3 C3             1.4513    -0.4944    -0.0145 C.3     
   4 O4             1.0236     2.1234     0.0037 O.2     
   5 C5             1.4717    -2.0012    -0.0227 C.ar    
   6 C6             1.4697    -2.6856    -1.2238 C.ar    
   7 C7             1.4884    -4.0676    -1.2321 C.ar    
   8 C8             1.5092    -4.7660    -0.0379 C.ar    
   9 C9             1.5113    -4.0805     1.1638 C.ar    
  10 C10            1.4982    -2.6984     1.1707 C.ar    
  11 Cl11           1.5322    -6.5018    -0.0475 Cl      
  12 C12           -3.7176     3.5720     0.0382 C.ar    
  13 C13           -2.5191     4.2873     0.0368 C.ar    
  14 C14           -1.3214     3.6202     0.0280 C.ar    
  15 C15           -1.3012     2.2204     0.0203 C.ar    
  16 C16           -2.5047     1.5050     0.0216 C.ar    
  17 C17           -3.6999     2.1765     0.0305 C.ar    
  18 C18           -5.0112     4.2956     0.0539 C.ar    
  19 C19           -6.2107     3.5849     0.0553 C.ar    
  20 C20           -7.4119     4.2639     0.0704 C.ar    
  21 C21           -7.4275     5.6472     0.0837 C.ar    
  22 C22           -6.2405     6.3578     0.0819 C.ar    
  23 C23           -5.0332     5.6896     0.0731 C.ar    
  24 H24           -0.4983    -0.3791     0.8948 H       
  25 H25           -0.5153    -0.3696    -0.8850 H       
  26 H26            1.9516    -0.1193    -0.9073 H       
  27 H27            1.9686    -0.1289     0.8726 H       
  28 H28            1.4531    -2.1404    -2.1559 H       
  29 H29            1.4864    -4.6022    -2.1705 H       
  30 H30            1.5275    -4.6251     2.0963 H       
  31 H31            1.5043    -2.1631     2.1087 H       
  32 H32           -2.5352     5.3672     0.0423 H       
  33 H33           -0.3943     4.1741     0.0266 H       
  34 H34           -2.4915     0.4251     0.0154 H       
  35 H35           -4.6285     1.6251     0.0319 H       
  36 H36           -6.1998     2.5050     0.0442 H       
  37 H37           -8.3417     3.7145     0.0716 H       
  38 H38           -8.3700     6.1744     0.0952 H       
  39 H39           -6.2589     7.4376     0.0916 H       
  40 H40           -4.1072     6.2453     0.0762 H       
@<TRIPOS>BOND
   1    1    2 1
   2    1    4 2
   3    1   15 1
   4    2    3 1
   5    2   24 1
   6    2   25 1
   7    3    5 1
   8    3   26 1
   9    3   27 1
  10    5    6 ar
  11    5   10 ar
  12    6    7 ar
  13    6   28 1
  14    7    8 ar
  15    7   29 1
  16    8    9 ar
  17    8   11 1
  18    9   10 ar
  19    9   30 1
  20   10   31 1
  21   12   13 ar
  22   12   17 ar
  23   12   18 1
  24   13   14 ar
  25   13   32 1
  26   14   15 ar
  27   14   33 1
  28   15   16 ar
  29   16   17 ar
  30   16   34 1
  31   17   35 1
  32   18   19 ar
  33   18   23 ar
  34   19   20 ar
  35   19   36 1
  36   20   21 ar
  37   20   37 1
  38   21   22 ar
  39   21   38 1
  40   22   23 ar
  41   22   39 1
  42   23   40 1

#	End of record

