#	Name: ASD00311497
#	Creating user name:	WinNT
#	Creation time:	15. 06. 2019 18:34

#	Modifying user name:	WinNT
#	Modification time:	15. 06. 2019 18:34

#	Program:	/corina/corina34_cracker 3.40 0067  02.08.2006

@<TRIPOS>MOLECULE
ASD00311497
  50   54    0    0    0
SMALL
NO_CHARGES


@<TRIPOS>ATOM
   1 C1            -0.0169     1.3923     0.0097 C.ar    
   2 C2             0.0021    -0.0041     0.0020 C.ar    
   3 C3             1.1982    -0.6737    -0.0130 C.ar    
   4 C4             2.3995     0.0418    -0.0207 C.ar    
   5 C5             2.3795     1.4400    -0.0130 C.ar    
   6 C6             1.1824     2.1078     0.0021 C.ar    
   7 C7            -1.3089     2.1144     0.0197 C.ar    
   8 C8            -1.5362     3.1319     0.9555 C.ar    
   9 C9            -2.7440     3.8042     0.9621 C.ar    
  10 C10           -3.7328     3.4680     0.0377 C.ar    
  11 C11           -3.5035     2.4534    -0.8939 C.ar    
  12 C12           -2.2995     1.7862    -0.9064 C.ar    
  13 C13            3.6870    -0.6777    -0.0364 C.2     
  14 O14            3.7039    -1.8926    -0.0427 O.2     
  15 O15            4.8444     0.0123    -0.0438 O.3     
  16 C16           -6.8272     5.3839    -0.9050 C.2     
  17 C17           -5.6190     4.7641    -1.1610 C.2     
  18 C18           -5.1159     4.7582    -2.4947 C.2     
  19 C19           -5.8470     5.3724    -3.5033 C.2     
  20 C20           -7.0744     5.9910    -3.1889 C.2     
  21 N21           -7.5317     5.9857    -1.9273 N.am    
  22 C22           -5.0270     4.1874     0.0445 C.2     
  23 C23           -5.7494     4.3628     1.1494 C.2     
  24 S24           -7.2168     5.2579     0.8073 S.3     
  25 C25           -5.3419     5.3781    -4.8956 C.ar    
  26 C26           -6.0387     4.7004    -5.8959 C.ar    
  27 C27           -5.5631     4.7093    -7.1912 C.ar    
  28 C28           -4.3974     5.3881    -7.4984 C.ar    
  29 C29           -3.7018     6.0621    -6.5105 C.ar    
  30 C30           -4.1707     6.0658    -5.2128 C.ar    
  31 O31           -7.7237     6.5335    -4.0680 O.2     
  32 O32           -3.9352     4.1594    -2.7759 O.3     
  33 O33           -0.5718     3.4569     1.8548 O.3     
  34 H34           -0.9259    -0.5566     0.0083 H       
  35 H35            1.2126    -1.7536    -0.0186 H       
  36 H36            3.3068     1.9936    -0.0186 H       
  37 H37            1.1667     3.1877     0.0081 H       
  38 H38           -2.9219     4.5888     1.6826 H       
  39 H39           -4.2706     2.1947    -1.6088 H       
  40 H40           -2.1231     1.0051    -1.6311 H       
  41 H41            5.6626    -0.5029    -0.0541 H       
  42 H42           -8.3781     6.4160    -1.7291 H       
  43 H43           -5.4665     4.0039     2.1279 H       
  44 H44           -6.9484     4.1696    -5.6572 H       
  45 H45           -6.1017     4.1850    -7.9667 H       
  46 H46           -4.0287     5.3916    -8.5135 H       
  47 H47           -2.7923     6.5899    -6.7564 H       
  48 H48           -3.6294     6.5963    -4.4434 H       
  49 H49           -3.6809     4.2093    -3.7075 H       
  50 H50            0.0353     4.1448     1.5491 H       
@<TRIPOS>BOND
   1    1    2 ar
   2    1    6 ar
   3    1    7 1
   4    2    3 ar
   5    2   34 1
   6    3    4 ar
   7    3   35 1
   8    4    5 ar
   9    4   13 1
  10    5    6 ar
  11    5   36 1
  12    6   37 1
  13    7    8 ar
  14    7   12 ar
  15    8    9 ar
  16    8   33 1
  17    9   10 ar
  18    9   38 1
  19   10   11 ar
  20   10   22 1
  21   11   12 ar
  22   11   39 1
  23   12   40 1
  24   13   14 2
  25   13   15 1
  26   15   41 1
  27   16   17 2
  28   16   21 1
  29   16   24 1
  30   17   18 1
  31   17   22 1
  32   18   19 2
  33   18   32 1
  34   19   20 1
  35   19   25 1
  36   20   21 am
  37   20   31 2
  38   21   42 1
  39   22   23 2
  40   23   24 1
  41   23   43 1
  42   25   26 ar
  43   25   30 ar
  44   26   27 ar
  45   26   44 1
  46   27   28 ar
  47   27   45 1
  48   28   29 ar
  49   28   46 1
  50   29   30 ar
  51   29   47 1
  52   30   48 1
  53   32   49 1
  54   33   50 1

#	End of record

