#	Name: ASD01903191
#	Creating user name:	WinNT
#	Creation time:	15. 06. 2019 19:54

#	Modifying user name:	WinNT
#	Modification time:	15. 06. 2019 19:54

#	Program:	/corina/corina34_cracker 3.40 0067  02.08.2006

@<TRIPOS>MOLECULE
ASD01903191
  26   28    0    0    0
SMALL
NO_CHARGES


@<TRIPOS>ATOM
   1 S1            -0.0242     1.7576    -0.0308 S.3     
   2 C2             0.0013    -0.0032    -0.0099 C.2     
   3 N3             1.2321    -0.4153    -0.0142 N.2     
   4 C4             2.1769     0.5142    -0.0325 C.2     
   5 C5             1.7377     1.7833    -0.0444 C.2     
   6 N6            -1.1185    -0.8215     0.0083 N.pl3   
   7 C7            -2.3870    -0.2623     0.1280 C.ar    
   8 N8            -2.5134     1.0402     0.3296 N.ar    
   9 C9            -3.6975     1.6102     0.4486 C.ar    
  10 C10           -4.8548     0.8621     0.3667 C.ar    
  11 C11           -4.7659    -0.5077     0.1558 C.ar    
  12 C12           -3.5112    -1.0758     0.0290 C.ar    
  13 C13            3.6232     0.1751    -0.0388 C.2     
  14 C14            4.6930     1.0919    -0.0568 C.2     
  15 N15            5.8103     0.4125    -0.0570 N.2     
  16 N16            5.5004    -0.9528    -0.0393 N.pl3   
  17 C17            4.1565    -1.0798    -0.0223 C.2     
  18 Cl18           4.5522     2.8221    -0.0761 Cl      
  19 H19            2.3577     2.6674    -0.0599 H       
  20 H20           -1.0173    -1.7837    -0.0623 H       
  21 H21           -3.7621     2.6757     0.6125 H       
  22 H22           -5.8196     1.3372     0.4660 H       
  23 H23           -5.6564    -1.1150     0.0884 H       
  24 H24           -3.4055    -2.1379    -0.1361 H       
  25 H25            6.1407    -1.6814    -0.0360 H       
  26 H26            3.6038    -2.0075    -0.0063 H       
@<TRIPOS>BOND
   1    1    2 1
   2    1    5 1
   3    2    3 2
   4    2    6 1
   5    3    4 1
   6    4    5 2
   7    4   13 1
   8    5   19 1
   9    6    7 1
  10    6   20 1
  11    7    8 ar
  12    7   12 ar
  13    8    9 ar
  14    9   10 ar
  15    9   21 1
  16   10   11 ar
  17   10   22 1
  18   11   12 ar
  19   11   23 1
  20   12   24 1
  21   13   14 1
  22   13   17 2
  23   14   15 2
  24   14   18 1
  25   15   16 1
  26   16   17 1
  27   16   25 1
  28   17   26 1

#	End of record

