#	Name: ASD05723007
#	Creating user name:	WinNT
#	Creation time:	15. 06. 2019 21:02

#	Modifying user name:	WinNT
#	Modification time:	15. 06. 2019 21:02

#	Program:	/corina/corina34_cracker 3.40 0067  02.08.2006

@<TRIPOS>MOLECULE
ASD05723007
  39   42    0    0    0
SMALL
NO_CHARGES


@<TRIPOS>ATOM
   1 C1             1.6895    -1.1055     1.5345 C.3     
   2 C2             1.3364    -2.2626     0.5978 C.3     
   3 C3             2.2654    -3.4459     0.8764 C.3     
   4 N4            -0.0528    -2.6683     0.8250 N.pl3   
   5 C5            -1.0563    -2.6517    -0.1120 C.ar    
   6 C6            -2.2314    -3.1188     0.5192 C.ar    
   7 C7            -1.9020    -3.4151     1.8597 C.2     
   8 C8            -2.8176    -3.9275     2.8791 C.2     
   9 C9            -4.0108    -4.6074     2.6168 C.2     
  10 C10           -4.5726    -4.9173     3.8565 C.2     
  11 C11           -5.7380    -5.5761     4.2853 C.2     
  12 C12           -5.9827    -5.7051     5.6208 C.2     
  13 C13           -5.0984    -5.1956     6.5763 C.2     
  14 C14           -3.9565    -4.5495     6.2219 C.2     
  15 C15           -3.6434    -4.3818     4.8603 C.2     
  16 N16           -2.6333    -3.8196     4.2024 N.2     
  17 O17           -7.1115    -6.3428     6.0320 O.3     
  18 N18           -0.5788    -3.1439     2.0330 N.pl3   
  19 C19           -3.4139    -3.1951    -0.2432 C.ar    
  20 N20           -3.3669    -2.8233    -1.5213 N.ar    
  21 C21           -2.2455    -2.3940    -2.0651 C.ar    
  22 N22           -1.1143    -2.3061    -1.3919 N.ar    
  23 N23           -4.5880    -3.6429     0.3186 N.pl3   
  24 H24            2.7232    -0.8036     1.3655 H       
  25 H25            1.0277    -0.2624     1.3360 H       
  26 H26            1.5692    -1.4261     2.5693 H       
  27 H27            1.4567    -1.9420    -0.4370 H       
  28 H28            2.1451    -3.7665     1.9112 H       
  29 H29            2.0138    -4.2703     0.2091 H       
  30 H30            3.2990    -3.1441     0.7074 H       
  31 H31           -4.4181    -4.8458     1.6454 H       
  32 H32           -6.4341    -5.9766     3.5632 H       
  33 H33           -5.3291    -5.3184     7.6242 H       
  34 H34           -3.2922    -4.1660     6.9822 H       
  35 H35           -7.2084    -6.3907     6.9929 H       
  36 H36           -0.0824    -3.2588     2.8584 H       
  37 H37           -2.2528    -2.1028    -3.1051 H       
  38 H38           -4.8460    -3.3452     1.2050 H       
  39 H39           -5.1574    -4.2562    -0.1719 H       
@<TRIPOS>BOND
   1    1    2 1
   2    1   24 1
   3    1   25 1
   4    1   26 1
   5    2    3 1
   6    2    4 1
   7    2   27 1
   8    3   28 1
   9    3   29 1
  10    3   30 1
  11    4    5 1
  12    4   18 1
  13    5    6 ar
  14    5   22 ar
  15    6    7 1
  16    6   19 ar
  17    7    8 2
  18    7   18 1
  19    8    9 1
  20    8   16 1
  21    9   10 2
  22    9   31 1
  23   10   11 1
  24   10   15 1
  25   11   12 2
  26   11   32 1
  27   12   13 1
  28   12   17 1
  29   13   14 2
  30   13   33 1
  31   14   15 1
  32   14   34 1
  33   15   16 2
  34   17   35 1
  35   18   36 1
  36   19   20 ar
  37   19   23 1
  38   20   21 ar
  39   21   22 ar
  40   21   37 1
  41   23   38 1
  42   23   39 1

#	End of record

