#	Name: ASD00069194
#	Creating user name:	WinNT
#	Creation time:	15. 06. 2019 18:29

#	Modifying user name:	WinNT
#	Modification time:	15. 06. 2019 18:29

#	Program:	/corina/corina34_cracker 3.40 0067  02.08.2006

@<TRIPOS>MOLECULE
ASD00069194
  70   75    0    0    0
SMALL
NO_CHARGES


@<TRIPOS>ATOM
   1 C1            -0.1189     1.2262    -0.5730 C.2     
   2 N2            -0.0097     0.0197    -0.0627 N.2     
   3 C3             1.2344    -0.4302    -0.2688 C.2     
   4 C4             1.9295     0.5395    -0.9367 C.2     
   5 N5             1.0820     1.5751    -1.1264 N.pl3   
   6 C6            -1.3341     2.0608    -0.5569 C.2     
   7 O7            -1.3189     3.1669    -1.0625 O.2     
   8 N8            -2.4618     1.5981     0.0181 N.am    
   9 C9             1.4912    -3.8797     1.2087 C.ar    
  10 C10            0.9572    -2.6640     0.8343 C.ar    
  11 C11            1.7656    -1.7490     0.1538 C.ar    
  12 C12            3.0885    -2.1110    -0.1180 C.ar    
  13 C13            3.5417    -3.3472     0.2923 C.ar    
  14 N14            2.7454    -4.1823     0.9326 N.ar    
  15 C15            0.6324    -4.8728     1.9484 C.3     
  16 C16           -3.5802     2.4324     0.1372 C.ar    
  17 C17           -4.8644     1.8980     0.0404 C.ar    
  18 C18           -5.9690     2.7310     0.1594 C.ar    
  19 C19           -5.7923     4.0871     0.3733 C.ar    
  20 C20           -4.5181     4.6155     0.4685 C.ar    
  21 C21           -3.4134     3.7919     0.3573 C.ar    
  22 F22           -7.2154     2.2181     0.0659 F       
  23 N23           -5.0396     0.5253    -0.1765 N.3     
  24 C24           -5.7974    -0.0885     0.9214 C.3     
  25 C25           -5.8440    -1.6055     0.7252 C.3     
  26 C26           -6.5086    -1.9214    -0.6176 C.3     
  27 C27           -5.7281    -1.2308    -1.7394 C.3     
  28 C28           -5.6849     0.2754    -1.4717 C.3     
  29 C29           -6.5035    -3.4113    -0.8439 C.2     
  30 O30           -5.5727    -4.0813    -0.4497 O.2     
  31 C31           -7.8874    -5.8112    -3.0755 C.3     
  32 C32           -7.5944    -5.4633    -1.6028 C.3     
  33 N33           -7.5335    -3.9991    -1.4843 N.am    
  34 C34           -8.6057    -3.1819    -2.0699 C.3     
  35 C35           -8.8488    -3.6659    -3.5123 C.3     
  36 N36           -7.5376    -3.6885    -4.2015 N.3     
  37 C37           -6.9021    -4.9939    -3.9429 C.3     
  38 C38           -9.2571    -5.1599    -3.4155 C.3     
  39 H39            2.9610     0.4878    -1.2525 H       
  40 H40            1.2874     2.4112    -1.5732 H       
  41 H41           -2.4987     0.6872     0.3495 H       
  42 H42           -0.0704    -2.4231     1.0632 H       
  43 H43            3.7456    -1.4326    -0.6419 H       
  44 H44            4.5619    -3.6359     0.0866 H       
  45 H45            0.1256    -5.5195     1.2320 H       
  46 H46            1.2589    -5.4776     2.6040 H       
  47 H47           -0.1085    -4.3397     2.5441 H       
  48 H48           -6.6520     4.7342     0.4656 H       
  49 H49           -4.3855     5.6743     0.6351 H       
  50 H50           -2.4199     4.2078     0.4371 H       
  51 H51           -5.3118     0.1403     1.8701 H       
  52 H52           -6.8126     0.3082     0.9283 H       
  53 H53           -4.8297    -2.0047     0.7321 H       
  54 H54           -6.4197    -2.0592     1.5319 H       
  55 H55           -7.5357    -1.5566    -0.6104 H       
  56 H56           -4.7121    -1.6240    -1.7713 H       
  57 H57           -6.2211    -1.4168    -2.6936 H       
  58 H58           -6.7006     0.6704    -1.4537 H       
  59 H59           -5.1176     0.7684    -2.2612 H       
  60 H60           -7.8468    -6.8819    -3.2756 H       
  61 H61           -8.3904    -5.8514    -0.9672 H       
  62 H62           -6.6398    -5.8969    -1.3048 H       
  63 H63           -9.5179    -3.2983    -1.4846 H       
  64 H64           -8.3057    -2.1341    -2.0795 H       
  65 H65           -9.5842    -3.0555    -4.0365 H       
  66 H66           -7.6468    -3.5294    -5.1918 H       
  67 H67           -5.9640    -4.8513    -3.4064 H       
  68 H68           -6.7178    -5.5111    -4.8844 H       
  69 H69           -9.6414    -5.5255    -4.3677 H       
  70 H70           -9.9787    -5.3197    -2.6144 H       
@<TRIPOS>BOND
   1    1    2 2
   2    1    5 1
   3    1    6 1
   4    2    3 1
   5    3    4 2
   6    3   11 1
   7    4    5 1
   8    4   39 1
   9    5   40 1
  10    6    7 2
  11    6    8 am
  12    8   16 1
  13    8   41 1
  14    9   10 ar
  15    9   14 ar
  16    9   15 1
  17   10   11 ar
  18   10   42 1
  19   11   12 ar
  20   12   13 ar
  21   12   43 1
  22   13   14 ar
  23   13   44 1
  24   15   45 1
  25   15   46 1
  26   15   47 1
  27   16   17 ar
  28   16   21 ar
  29   17   18 ar
  30   17   23 1
  31   18   19 ar
  32   18   22 1
  33   19   20 ar
  34   19   48 1
  35   20   21 ar
  36   20   49 1
  37   21   50 1
  38   23   24 1
  39   23   28 1
  40   24   25 1
  41   24   51 1
  42   24   52 1
  43   25   26 1
  44   25   53 1
  45   25   54 1
  46   26   27 1
  47   26   29 1
  48   26   55 1
  49   27   28 1
  50   27   56 1
  51   27   57 1
  52   28   58 1
  53   28   59 1
  54   29   30 2
  55   29   33 am
  56   31   32 1
  57   31   37 1
  58   31   38 1
  59   31   60 1
  60   32   33 1
  61   32   61 1
  62   32   62 1
  63   33   34 1
  64   34   35 1
  65   34   63 1
  66   34   64 1
  67   35   36 1
  68   35   38 1
  69   35   65 1
  70   36   37 1
  71   36   66 1
  72   37   67 1
  73   37   68 1
  74   38   69 1
  75   38   70 1

#	End of record

