#	Name: ASD07930836
#	Creating user name:	WinNT
#	Creation time:	15. 06. 2019 21:13

#	Modifying user name:	WinNT
#	Modification time:	15. 06. 2019 21:13

#	Program:	/corina/corina34_cracker 3.40 0067  02.08.2006

@<TRIPOS>MOLECULE
ASD07930836
  48   50    0    0    0
SMALL
NO_CHARGES


@<TRIPOS>ATOM
   1 C1            -0.1963     1.3449     0.0587 C.2     
   2 C2            -0.2574    -0.1312     0.0902 C.ar    
   3 C3             0.9197    -0.8819     0.0881 C.ar    
   4 C4             0.8555    -2.2596     0.1175 C.ar    
   5 C5            -0.3719    -2.8975     0.1487 C.ar    
   6 C6            -1.5424    -2.1596     0.1509 C.ar    
   7 C7            -1.4924    -0.7812     0.1279 C.ar    
   8 O8             0.8802     1.9080     0.0309 O.2     
   9 N9            -1.3346     2.0666     0.0552 N.am    
  10 C10           -1.2789     3.4129     0.0265 C.2     
  11 N11           -2.4172     4.1345     0.0230 N.am    
  12 S12            0.2378     4.2063    -0.0056 S.2     
  13 O13           -2.7317     6.3471    -2.2242 O.3     
  14 C14           -1.6564     6.0833    -1.2968 C.3     
  15 C15           -2.3566     5.5979    -0.0082 C.3     
  16 C16           -3.7766     6.1996    -0.1031 C.3     
  17 C17           -3.7663     6.9773    -1.4378 C.3     
  18 C18           -3.4278     8.4493    -1.1939 C.3     
  19 C19           -4.8282     5.0888    -0.1379 C.3     
  20 O20           -6.1342     5.6682    -0.1082 O.3     
  21 C21           -1.6416     6.1216     1.2106 C.ar    
  22 C22           -2.1698     5.9000     2.4715 C.ar    
  23 C23           -1.5127     6.3807     3.5907 C.ar    
  24 C24           -0.3279     7.0825     3.4484 C.ar    
  25 C25            0.1983     7.3028     2.1868 C.ar    
  26 C26           -0.4562     6.8178     1.0700 C.ar    
  27 F27            0.3144     7.5527     4.5400 F       
  28 F28           -3.3263     5.2153     2.6090 F       
  29 H29            1.8784    -0.3852     0.0631 H       
  30 H30            1.7653    -2.8415     0.1160 H       
  31 H31           -0.4166    -3.9764     0.1709 H       
  32 H32           -2.4971    -2.6638     0.1749 H       
  33 H33           -2.4066    -0.2063     0.1346 H       
  34 H34           -2.1939     1.6170     0.0734 H       
  35 H35           -3.2765     3.6849     0.0412 H       
  36 H36           -1.0002     5.3059    -1.6880 H       
  37 H37           -1.0917     6.9949    -1.1014 H       
  38 H38           -3.9614     6.8758     0.7316 H       
  39 H39           -4.7309     6.8866    -1.9373 H       
  40 H40           -3.2498     8.9442    -2.1486 H       
  41 H41           -4.2600     8.9337    -0.6831 H       
  42 H42           -2.5324     8.5187    -0.5762 H       
  43 H43           -4.7103     4.5054    -1.0511 H       
  44 H44           -4.6992     4.4390     0.7276 H       
  45 H45           -6.8522     5.0208    -0.1278 H       
  46 H46           -1.9241     6.2087     4.5744 H       
  47 H47            1.1225     7.8503     2.0755 H       
  48 H48           -0.0429     6.9865     0.0866 H       
@<TRIPOS>BOND
   1    1    2 1
   2    1    8 2
   3    1    9 am
   4    2    3 ar
   5    2    7 ar
   6    3    4 ar
   7    3   29 1
   8    4    5 ar
   9    4   30 1
  10    5    6 ar
  11    5   31 1
  12    6    7 ar
  13    6   32 1
  14    7   33 1
  15    9   10 am
  16    9   34 1
  17   10   11 am
  18   10   12 2
  19   11   15 1
  20   11   35 1
  21   13   14 1
  22   13   17 1
  23   14   15 1
  24   14   36 1
  25   14   37 1
  26   15   21 1
  27   15   16 1
  28   16   17 1
  29   16   19 1
  30   16   38 1
  31   17   18 1
  32   17   39 1
  33   18   40 1
  34   18   41 1
  35   18   42 1
  36   19   20 1
  37   19   43 1
  38   19   44 1
  39   20   45 1
  40   21   22 ar
  41   21   26 ar
  42   22   23 ar
  43   22   28 1
  44   23   24 ar
  45   23   46 1
  46   24   25 ar
  47   24   27 1
  48   25   26 ar
  49   25   47 1
  50   26   48 1

#	End of record

