#	Name: ASD01882487
#	Creating user name:	WinNT
#	Creation time:	15. 06. 2019 19:44

#	Modifying user name:	WinNT
#	Modification time:	15. 06. 2019 19:44

#	Program:	/corina/corina34_cracker 3.40 0067  02.08.2006

@<TRIPOS>MOLECULE
ASD01882487
  58   62    0    0    0
SMALL
NO_CHARGES


@<TRIPOS>ATOM
   1 C1             0.1747     1.3982     0.5627 C.2     
   2 C2            -0.0300     0.0660     0.1550 C.2     
   3 C3             0.9718    -0.5937    -0.4863 C.2     
   4 C4             2.1916     0.0599    -0.7322 C.2     
   5 C5             2.3735     1.3368    -0.3352 C.2     
   6 N6             1.3775     2.0104     0.3084 N.pl3   
   7 N7             0.0725     3.3839     1.3299 N.2     
   8 N8            -0.5834     2.2864     1.1848 N.2     
   9 C9             1.2690     3.2690     0.8139 C.2     
  10 C10           -1.3435    -0.6210     0.4265 C.3     
  11 F11           -1.2140    -1.4489     1.5468 F       
  12 F12           -2.3311     0.3399     0.6685 F       
  13 F13           -1.7049    -1.3917    -0.6837 F       
  14 C14            0.7749    -2.0200    -0.9311 C.3     
  15 N15            0.3224    -2.0391    -2.3285 N.3     
  16 C16            0.3465    -3.4046    -2.8713 C.3     
  17 C17           -0.2056    -3.3931    -4.2987 C.3     
  18 N18            0.6021    -2.4862    -5.1262 N.3     
  19 C19            0.5779    -1.1207    -4.5835 C.3     
  20 C20            1.1300    -1.1322    -3.1561 C.3     
  21 C21            0.1705    -2.5044    -6.4591 C.ar    
  22 C22            0.2854    -3.6697    -7.2141 C.ar    
  23 C23           -0.1429    -3.6833    -8.5309 C.ar    
  24 C24           -0.6842    -2.5400    -9.0947 C.ar    
  25 C25           -0.7984    -1.3825    -8.3445 C.ar    
  26 C26           -0.3772    -1.3645    -7.0275 C.ar    
  27 O27            0.8177    -4.7915    -6.6591 O.3     
  28 C28            0.9045    -5.9492    -7.4925 C.3     
  29 F29           -1.1013    -2.5544   -10.3796 F       
  30 C30            2.3321     4.3366     0.7825 C.3     
  31 C31            2.1868     5.1637    -0.4964 C.3     
  32 C32            3.1039     6.3772    -0.6609 C.3     
  33 C33            3.3404     5.1203    -1.5006 C.3     
  34 H34            2.9878    -0.4628    -1.2413 H       
  35 H35            3.3150     1.8292    -0.5290 H       
  36 H36            1.7178    -2.5603    -0.8471 H       
  37 H37            0.0252    -2.4972    -0.2999 H       
  38 H38            1.3720    -3.7740    -2.8809 H       
  39 H39           -0.2686    -4.0543    -2.2487 H       
  40 H40           -0.1617    -4.4001    -4.7137 H       
  41 H41           -1.2399    -3.0495    -4.2858 H       
  42 H42            1.1930    -0.4710    -5.2061 H       
  43 H43           -0.4475    -0.7513    -4.5738 H       
  44 H44            1.0861    -0.1252    -2.7411 H       
  45 H45            2.1643    -1.4758    -3.1689 H       
  46 H46           -0.0544    -4.5853    -9.1183 H       
  47 H47           -1.2207    -0.4927    -8.7875 H       
  48 H48           -0.4714    -0.4614    -6.4428 H       
  49 H49            1.5275    -5.7272    -8.3589 H       
  50 H50            1.3462    -6.7706    -6.9283 H       
  51 H51           -0.0938    -6.2326    -7.8257 H       
  52 H52            2.2200     4.9866     1.6503 H       
  53 H53            3.3168     3.8695     0.8033 H       
  54 H54            1.1751     5.2398    -0.8946 H       
  55 H55            2.6956     7.2516    -1.1677 H       
  56 H56            3.8108     6.5864     0.1420 H       
  57 H57            4.2028     4.5025    -1.2501 H       
  58 H58            3.0876     5.1678    -2.5598 H       
@<TRIPOS>BOND
   1    1    2 1
   2    1    6 1
   3    1    8 2
   4    2    3 2
   5    2   10 1
   6    3    4 1
   7    3   14 1
   8    4    5 2
   9    4   34 1
  10    5    6 1
  11    5   35 1
  12    6    9 1
  13    7    8 1
  14    7    9 2
  15    9   30 1
  16   10   11 1
  17   10   12 1
  18   10   13 1
  19   14   15 1
  20   14   36 1
  21   14   37 1
  22   15   16 1
  23   15   20 1
  24   16   17 1
  25   16   38 1
  26   16   39 1
  27   17   18 1
  28   17   40 1
  29   17   41 1
  30   18   19 1
  31   18   21 1
  32   19   20 1
  33   19   42 1
  34   19   43 1
  35   20   44 1
  36   20   45 1
  37   21   22 ar
  38   21   26 ar
  39   22   23 ar
  40   22   27 1
  41   23   24 ar
  42   23   46 1
  43   24   25 ar
  44   24   29 1
  45   25   26 ar
  46   25   47 1
  47   26   48 1
  48   27   28 1
  49   28   49 1
  50   28   50 1
  51   28   51 1
  52   30   31 1
  53   30   52 1
  54   30   53 1
  55   31   32 1
  56   31   33 1
  57   31   54 1
  58   32   33 1
  59   32   55 1
  60   32   56 1
  61   33   57 1
  62   33   58 1

#	End of record

