#	Name: ASD02030791
#	Creating user name:	WinNT
#	Creation time:	15. 06. 2019 20:16

#	Modifying user name:	WinNT
#	Modification time:	15. 06. 2019 20:16

#	Program:	/corina/corina34_cracker 3.40 0067  02.08.2006

@<TRIPOS>MOLECULE
ASD02030791
  78   81    0    0    0
SMALL
NO_CHARGES


@<TRIPOS>ATOM
   1 H1            -0.8235     1.0995    -1.0317 H       
   2 C2            -0.5900     2.1642    -1.0360 C.3     
   3 C3            -0.7093     2.7340    -2.4715 C.3     
   4 C4             0.7173     3.1914    -2.8811 C.3     
   5 C5             1.6215     2.3365    -1.9862 C.3     
   6 H6             1.6651     1.3132    -2.3589 H       
   7 C7             3.0166     2.8832    -1.7428 C.3     
   8 H8             2.9600     3.8866    -1.3207 H       
   9 C9             3.8028     2.8847    -3.0586 C.3     
  10 H10            3.3609     3.6060    -3.7460 H       
  11 C11            3.7563     1.4888    -3.6833 C.3     
  12 C12            5.2284     3.2640    -2.7820 C.2     
  13 C13            5.8057     3.0614    -1.6341 C.2     
  14 C14            7.2580     3.4793    -1.4760 C.3     
  15 C15            8.0455     2.2896    -0.9192 C.3     
  16 C16            8.0434     1.1526    -1.9430 C.3     
  17 O17            9.3914     2.6907    -0.6556 O.3     
  18 C18            7.3933     1.8087     0.3782 C.3     
  19 C19            5.9839     1.2906     0.0848 C.3     
  20 C20            5.1231     2.4368    -0.4537 C.3     
  21 C21            5.0020     3.4965     0.6432 C.3     
  22 C22            3.7230     1.9346    -0.7646 C.3     
  23 H23            3.8066     0.9550    -1.2355 H       
  24 C24            2.9356     1.7665     0.5318 C.3     
  25 C25            1.4850     1.3352     0.2658 C.3     
  26 C26            0.8639     2.3880    -0.6325 C.3     
  27 C27            1.0203     3.7733    -0.0021 C.3     
  28 C28           -1.5254     2.9150    -0.0861 C.3     
  29 H29           -1.2346     3.9646    -0.0443 H       
  30 C30           -1.4299     2.3031     1.3130 C.3     
  31 C31           -2.9643     2.8042    -0.5941 C.3     
  32 C32           -3.8822     3.6570     0.2840 C.3     
  33 C33           -5.3212     3.5463    -0.2240 C.3     
  34 C34           -5.7719     2.0853    -0.1649 C.3     
  35 O35           -5.3869     4.0109    -1.5737 O.3     
  36 C36           -6.2391     4.3990     0.6542 C.3     
  37 F37           -5.8270     5.7349     0.6002 F       
  38 F38           -7.5548     4.2978     0.1897 F       
  39 F39           -6.1748     3.9442     1.9756 F       
  40 H40           -1.0642     1.9606    -3.1527 H       
  41 H41           -1.3918     3.5837    -2.4812 H       
  42 H42            0.9035     2.9779    -3.9337 H       
  43 H43            0.8577     4.2516    -2.6707 H       
  44 H44            2.7203     1.2130    -3.8798 H       
  45 H45            4.3156     1.4906    -4.6189 H       
  46 H46            4.2000     0.7683    -2.9961 H       
  47 H47            5.8013     3.7261    -3.5724 H       
  48 H48            7.6647     3.7674    -2.4454 H       
  49 H49            7.3250     4.3196    -0.7849 H       
  50 H50            8.5081     1.4953    -2.8675 H       
  51 H51            8.6039     0.3059    -1.5468 H       
  52 H52            7.0167     0.8467    -2.1441 H       
  53 H53            9.9495     1.9856    -0.3000 H       
  54 H54            7.9922     1.0065     0.8096 H       
  55 H55            7.3356     2.6373     1.0840 H       
  56 H56            6.0364     0.4951    -0.6585 H       
  57 H57            5.5407     0.9029     1.0020 H       
  58 H58            4.3024     4.2698     0.3257 H       
  59 H59            4.6381     3.0313     1.5593 H       
  60 H60            5.9791     3.9435     0.8260 H       
  61 H61            3.4234     1.0115     1.1483 H       
  62 H62            2.9314     2.7142     1.0702 H       
  63 H63            1.4711     0.3661    -0.2330 H       
  64 H64            0.9361     1.2781     1.2058 H       
  65 H65            0.4769     3.8062     0.9423 H       
  66 H66            2.0764     3.9728     0.1793 H       
  67 H67            0.6190     4.5278    -0.6787 H       
  68 H68           -1.6414     1.2353     1.2577 H       
  69 H69           -0.4254     2.4546     1.7080 H       
  70 H70           -2.1550     2.7836     1.9699 H       
  71 H71           -3.0145     3.1586    -1.6237 H       
  72 H72           -3.2854     1.7635    -0.5521 H       
  73 H73           -3.8321     3.3026     1.3136 H       
  74 H74           -3.5612     4.6978     0.2420 H       
  75 H75           -5.7217     1.7309     0.8646 H       
  76 H76           -6.7970     2.0064    -0.5268 H       
  77 H77           -5.1179     1.4778    -0.7906 H       
  78 H78           -5.1146     4.9319    -1.6864 H       
@<TRIPOS>BOND
   1    1    2 1
   2    2   26 1
   3    2    3 1
   4    2   28 1
   5    3    4 1
   6    3   40 1
   7    3   41 1
   8    4    5 1
   9    4   42 1
  10    4   43 1
  11    5   26 1
  12    5    6 1
  13    5    7 1
  14    7   22 1
  15    7    8 1
  16    7    9 1
  17    9   10 1
  18    9   11 1
  19    9   12 1
  20   11   44 1
  21   11   45 1
  22   11   46 1
  23   12   13 2
  24   12   47 1
  25   13   20 1
  26   13   14 1
  27   14   15 1
  28   14   48 1
  29   14   49 1
  30   15   16 1
  31   15   17 1
  32   15   18 1
  33   16   50 1
  34   16   51 1
  35   16   52 1
  36   17   53 1
  37   18   19 1
  38   18   54 1
  39   18   55 1
  40   19   20 1
  41   19   56 1
  42   19   57 1
  43   20   21 1
  44   20   22 1
  45   21   58 1
  46   21   59 1
  47   21   60 1
  48   22   23 1
  49   22   24 1
  50   24   25 1
  51   24   61 1
  52   24   62 1
  53   25   26 1
  54   25   63 1
  55   25   64 1
  56   26   27 1
  57   27   65 1
  58   27   66 1
  59   27   67 1
  60   28   29 1
  61   28   30 1
  62   28   31 1
  63   30   68 1
  64   30   69 1
  65   30   70 1
  66   31   32 1
  67   31   71 1
  68   31   72 1
  69   32   33 1
  70   32   73 1
  71   32   74 1
  72   33   34 1
  73   33   35 1
  74   33   36 1
  75   34   75 1
  76   34   76 1
  77   34   77 1
  78   35   78 1
  79   36   37 1
  80   36   38 1
  81   36   39 1

#	End of record

