#	Name: ASD01140346
#	Creating user name:	WinNT
#	Creation time:	15. 06. 2019 19:00

#	Modifying user name:	WinNT
#	Modification time:	15. 06. 2019 19:00

#	Program:	/corina/corina34_cracker 3.40 0067  02.08.2006

@<TRIPOS>MOLECULE
ASD01140346
  57   60    0    0    0
SMALL
NO_CHARGES


@<TRIPOS>ATOM
   1 C1             1.2125     0.4740     1.3613 C.ar    
   2 C2             1.2699    -0.9096     1.1746 C.ar    
   3 C3             2.4675    -1.5111     0.8086 C.ar    
   4 C4             3.6222    -0.7395     0.6243 C.ar    
   5 C5             3.5435     0.6454     0.7916 C.ar    
   6 C6             2.3416     1.2378     1.1699 C.ar    
   7 C7             4.8681    -1.4402     0.2930 C.2     
   8 N8             5.7715    -1.0868    -0.5520 N.2     
   9 C9             5.6404     0.1324    -1.3583 C.3     
  10 C10            5.5732     1.3028    -0.4117 C.2     
  11 N11            4.6404     1.4791     0.5572 N.pl3   
  12 C12            4.9546     2.6220     1.2254 C.2     
  13 C13            6.4182     2.3671    -0.3537 C.2     
  14 N14            6.0072     3.1561     0.6736 N.2     
  15 C15            5.1159    -2.7072     1.0196 C.ar    
  16 C16            5.8824    -3.7132     0.4316 C.ar    
  17 C17            4.5882    -2.8967     2.2967 C.ar    
  18 C18            4.8224    -4.0790     2.9683 C.ar    
  19 C19            5.5788    -5.0754     2.3775 C.ar    
  20 C20            6.1097    -4.8911     1.1133 C.ar    
  21 C21            0.0951    -1.7070     1.3610 C.1     
  22 C22           -0.8680    -2.3608     1.5137 C.1     
  23 Si23          -2.4266    -3.4188     1.7609 Si      
  24 C24           -2.0202    -5.2081     1.4387 C.3     
  25 C25           -3.0370    -3.2260     3.5105 C.3     
  26 C26           -3.7511    -2.8597     0.5760 C.3     
  27 C27            7.5666     2.6182    -1.2416 C.2     
  28 O28            7.8984     1.7803    -2.0585 O.2     
  29 N29            8.2497     3.7763    -1.1487 N.am    
  30 C30            9.4593     3.9796    -1.9498 C.3     
  31 C31            7.7825     4.8319    -0.2466 C.3     
  32 H32            0.2839     0.9433     1.6506 H       
  33 H33            2.5087    -2.5808     0.6655 H       
  34 H34            2.2948     2.3070     1.3146 H       
  35 H35            6.5050     0.2365    -2.0138 H       
  36 H36            4.7283     0.0855    -1.9533 H       
  37 H37            4.4188     3.0214     2.0738 H       
  38 H38            6.2970    -3.5706    -0.5555 H       
  39 H39            3.9979    -2.1195     2.7591 H       
  40 H40            4.4147    -4.2268     3.9574 H       
  41 H41            5.7597    -5.9990     2.9073 H       
  42 H42            6.6990    -5.6727     0.6570 H       
  43 H43           -1.2452    -5.5352     2.1319 H       
  44 H44           -2.9143    -5.8151     1.5805 H       
  45 H45           -1.6630    -5.3209     0.4150 H       
  46 H46           -3.2748    -2.1791     3.6991 H       
  47 H47           -3.9312    -3.8330     3.6524 H       
  48 H48           -2.2621    -3.5531     4.2038 H       
  49 H49           -3.3940    -2.9725    -0.4476 H       
  50 H50           -4.6453    -3.4667     0.7179 H       
  51 H51           -3.9889    -1.8128     0.7646 H       
  52 H52            9.1903     4.4264    -2.9070 H       
  53 H53           10.1403     4.6436    -1.4174 H       
  54 H54            9.9472     3.0201    -2.1211 H       
  55 H55            8.1612     4.6450     0.7583 H       
  56 H56            8.1461     5.7975    -0.5982 H       
  57 H57            6.6927     4.8386    -0.2288 H       
@<TRIPOS>BOND
   1    1    2 ar
   2    1    6 ar
   3    1   32 1
   4    2    3 ar
   5    2   21 1
   6    3    4 ar
   7    3   33 1
   8    4    5 ar
   9    4    7 1
  10    5    6 ar
  11    5   11 1
  12    6   34 1
  13    7    8 2
  14    7   15 1
  15    8    9 1
  16    9   10 1
  17    9   35 1
  18    9   36 1
  19   10   11 1
  20   10   13 2
  21   11   12 1
  22   12   14 2
  23   12   37 1
  24   13   14 1
  25   13   27 1
  26   15   16 ar
  27   15   17 ar
  28   16   20 ar
  29   16   38 1
  30   17   18 ar
  31   17   39 1
  32   18   19 ar
  33   18   40 1
  34   19   20 ar
  35   19   41 1
  36   20   42 1
  37   21   22 3
  38   22   23 1
  39   23   24 1
  40   23   25 1
  41   23   26 1
  42   24   43 1
  43   24   44 1
  44   24   45 1
  45   25   46 1
  46   25   47 1
  47   25   48 1
  48   26   49 1
  49   26   50 1
  50   26   51 1
  51   27   28 2
  52   27   29 am
  53   29   30 1
  54   29   31 1
  55   30   52 1
  56   30   53 1
  57   30   54 1
  58   31   55 1
  59   31   56 1
  60   31   57 1

#	End of record

