#	Name: ASD02039469
#	Creating user name:	WinNT
#	Creation time:	15. 06. 2019 20:18

#	Modifying user name:	WinNT
#	Modification time:	15. 06. 2019 20:18

#	Program:	/corina/corina34_cracker 3.40 0067  02.08.2006

@<TRIPOS>MOLECULE
ASD02039469
  50   53    0    0    0
SMALL
NO_CHARGES


@<TRIPOS>ATOM
   1 C1             0.2751     1.7449     0.1414 C.ar    
   2 C2             0.7306     0.4397     0.0910 C.ar    
   3 C3             1.2601     2.8854     0.1333 C.3     
   4 N4             1.5945     3.2320    -1.2503 N.am    
   5 C5             0.9458     4.2387    -1.8684 C.2     
   6 C6            -0.1600     4.9320    -1.1850 C.2     
   7 C7            -0.9601     5.8981    -1.7212 C.2     
   8 N8            -0.5723     4.7215     0.0912 N.2     
   9 C9            -1.5726     5.5144     0.3466 C.2     
  10 N10           -1.8396     6.2594    -0.7575 N.pl3   
  11 O11            1.2733     4.5750    -2.9904 O.2     
  12 C12           -2.8903     7.2726    -0.8827 C.3     
  13 C13            2.6340     2.4842    -1.9620 C.3     
  14 C14           -0.1665    -0.6126     0.0976 C.ar    
  15 C15           -1.9900     0.9512     0.1952 C.ar    
  16 C16           -1.0792     2.0057     0.1935 C.ar    
  17 C17           -3.4463     1.2253     0.2505 C.ar    
  18 N18           -4.2232     0.5381     1.0821 N.ar    
  19 C19           -5.5195     0.7856     1.1279 C.ar    
  20 C20           -6.0703     1.7581     0.3119 C.ar    
  21 N21           -5.3024     2.4447    -0.5172 N.ar    
  22 C22           -4.0049     2.2092    -0.5659 C.ar    
  23 C23           -1.5255    -0.3648     0.1548 C.ar    
  24 C24            2.1717     1.9252    -3.3179 C.3     
  25 C25            3.5554     2.3172    -3.8625 C.3     
  26 C26            3.6054     3.3783    -2.7506 C.3     
  27 F27           -2.4018    -1.3930     0.1608 F       
  28 C28           -7.5506     2.0353     0.3681 C.3     
  29 F29           -7.8038     3.0247     1.3242 F       
  30 F30           -7.9907     2.4743    -0.8852 F       
  31 F31           -8.2314     0.8641     0.7174 F       
  32 H32            1.7913     0.2418     0.0458 H       
  33 H33            0.8185     3.7505     0.6280 H       
  34 H34            2.1654     2.5874     0.6621 H       
  35 H35           -0.9026     6.2984    -2.7226 H       
  36 H36           -2.1061     5.5690     1.2841 H       
  37 H37           -2.4954     8.2442    -0.5859 H       
  38 H38           -3.2290     7.3188    -1.9177 H       
  39 H39           -3.7284     7.0085    -0.2377 H       
  40 H40            3.1311     1.7465    -1.3321 H       
  41 H41            0.1949    -1.6295     0.0576 H       
  42 H42           -1.4327     3.0257     0.2250 H       
  43 H43           -6.1511     0.2277     1.8033 H       
  44 H44           -3.3781     2.7705    -1.2430 H       
  45 H45            1.9945     0.8497    -3.3093 H       
  46 H46            1.3514     2.4868    -3.7650 H       
  47 H47            4.3057     1.5341    -3.7528 H       
  48 H48            3.5259     2.7386    -4.8673 H       
  49 H49            3.1771     4.3372    -3.0426 H       
  50 H50            4.5856     3.4760    -2.2840 H       
@<TRIPOS>BOND
   1    1    2 ar
   2    1    3 1
   3    1   16 ar
   4    2   14 ar
   5    2   32 1
   6    3    4 1
   7    3   33 1
   8    3   34 1
   9    4    5 am
  10    4   13 1
  11    5    6 1
  12    5   11 2
  13    6    7 2
  14    6    8 1
  15    7   10 1
  16    7   35 1
  17    8    9 2
  18    9   10 1
  19    9   36 1
  20   10   12 1
  21   12   37 1
  22   12   38 1
  23   12   39 1
  24   13   24 1
  25   13   26 1
  26   13   40 1
  27   14   23 ar
  28   14   41 1
  29   15   16 ar
  30   15   17 1
  31   15   23 ar
  32   16   42 1
  33   17   18 ar
  34   17   22 ar
  35   18   19 ar
  36   19   20 ar
  37   19   43 1
  38   20   21 ar
  39   20   28 1
  40   21   22 ar
  41   22   44 1
  42   23   27 1
  43   24   25 1
  44   24   45 1
  45   24   46 1
  46   25   26 1
  47   25   47 1
  48   25   48 1
  49   26   49 1
  50   26   50 1
  51   28   29 1
  52   28   30 1
  53   28   31 1

#	End of record

