#	Name: ASD03330314
#	Creating user name:	WinNT
#	Creation time:	15. 06. 2019 20:37

#	Modifying user name:	WinNT
#	Modification time:	15. 06. 2019 20:37

#	Program:	/corina/corina34_cracker 3.40 0067  02.08.2006

@<TRIPOS>MOLECULE
ASD03330314
  64   67    0    0    0
SMALL
NO_CHARGES


@<TRIPOS>ATOM
   1 C1             0.8156     3.4792    -1.4596 C.3     
   2 N2             0.7497     2.0851    -0.9953 N.am    
   3 C3             1.1417     1.0213    -1.9394 C.3     
   4 C4             2.3904     1.4951    -2.6419 C.2     
   5 N5             2.8753     2.7597    -2.5610 N.pl3   
   6 C6             2.2714     3.8391    -1.7763 C.3     
   7 C7             3.2251     0.7899    -3.4472 C.2     
   8 N8             4.2049     1.6278    -3.8549 N.2     
   9 C9             4.0001     2.8132    -3.3281 C.2     
  10 C10            4.8487     4.0076    -3.5339 C.ar    
  11 C11            5.7820     4.0336    -4.5705 C.ar    
  12 C12            3.0885    -0.6316    -3.8107 C.2     
  13 O13            2.1582    -1.2837    -3.3764 O.2     
  14 C14            3.8588    -2.6225    -4.9856 C.3     
  15 N15            3.9945    -1.2092    -4.6243 N.am    
  16 C16            4.5608    -2.8771    -6.3210 C.3     
  17 S17            0.2511     1.7207     0.5412 S.o2    
  18 C18            6.5700     5.1507    -4.7575 C.ar    
  19 C19            6.4361     6.2434    -3.9196 C.ar    
  20 C20            5.5125     6.2237    -2.8898 C.ar    
  21 C21            4.7148     5.1148    -2.6956 C.ar    
  22 C22            6.0117    -2.3995    -6.2337 C.3     
  23 C23            4.5348    -4.3747    -6.6333 C.3     
  24 C24            3.8378    -2.1120    -7.4313 C.3     
  25 C25            4.4981    -3.4902    -3.8997 C.3     
  26 O26            5.8939    -3.1958    -3.8151 O.3     
  27 O27            0.4839     2.8829     1.3249 O.2     
  28 C28           -1.4962     1.5008     0.4841 C.ar    
  29 O29            0.8054     0.4497     0.8521 O.2     
  30 C30           -2.0276     0.2492     0.2353 C.ar    
  31 C31           -3.3984     0.0767     0.1904 C.ar    
  32 C32           -4.2379     1.1558     0.3949 C.ar    
  33 C33           -3.7065     2.4072     0.6447 C.ar    
  34 C34           -2.3357     2.5789     0.6938 C.ar    
  35 H35            0.2091     3.5924    -2.3582 H       
  36 H36            0.4386     4.1407    -0.6797 H       
  37 H37            1.3476     0.0990    -1.3962 H       
  38 H38            0.3459     0.8567    -2.6658 H       
  39 H39            2.3010     4.7661    -2.3490 H       
  40 H40            2.8254     3.9670    -0.8463 H       
  41 H41            5.8877     3.1811    -5.2251 H       
  42 H42            2.8022    -2.8743    -5.0767 H       
  43 H43            4.7365    -0.6892    -4.9706 H       
  44 H44            7.2931     5.1720    -5.5594 H       
  45 H45            7.0555     7.1152    -4.0698 H       
  46 H46            5.4127     7.0799    -2.2390 H       
  47 H47            3.9942     5.1006    -1.8914 H       
  48 H48            6.5754    -3.0670    -5.5820 H       
  49 H49            6.4558    -2.4029    -7.2291 H       
  50 H50            6.0375    -1.3882    -5.8279 H       
  51 H51            3.5012    -4.7150    -6.6955 H       
  52 H52            5.0349    -4.5561    -7.5847 H       
  53 H53            5.0498    -4.9198    -5.8424 H       
  54 H54            3.8563    -1.0451    -7.2087 H       
  55 H55            4.3379    -2.2934    -8.3826 H       
  56 H56            2.8042    -2.4523    -7.4934 H       
  57 H57            4.0238    -3.2805    -2.9410 H       
  58 H58            4.3633    -4.5426    -4.1493 H       
  59 H59            6.3646    -3.7105    -3.1453 H       
  60 H60           -1.3718    -0.5939     0.0755 H       
  61 H61           -3.8136    -0.9010    -0.0047 H       
  62 H62           -5.3089     1.0212     0.3592 H       
  63 H63           -4.3623     3.2504     0.8041 H       
  64 H64           -1.9206     3.5566     0.8889 H       
@<TRIPOS>BOND
   1    1    2 1
   2    1    6 1
   3    1   35 1
   4    1   36 1
   5    2    3 1
   6    2   17 am
   7    3    4 1
   8    3   37 1
   9    3   38 1
  10    4    5 1
  11    4    7 2
  12    5    6 1
  13    5    9 1
  14    6   39 1
  15    6   40 1
  16    7    8 1
  17    7   12 1
  18    8    9 2
  19    9   10 1
  20   10   11 ar
  21   10   21 ar
  22   11   18 ar
  23   11   41 1
  24   12   13 2
  25   12   15 am
  26   14   15 1
  27   14   25 1
  28   14   16 1
  29   14   42 1
  30   15   43 1
  31   16   22 1
  32   16   23 1
  33   16   24 1
  34   17   27 2
  35   17   28 1
  36   17   29 2
  37   18   19 ar
  38   18   44 1
  39   19   20 ar
  40   19   45 1
  41   20   21 ar
  42   20   46 1
  43   21   47 1
  44   22   48 1
  45   22   49 1
  46   22   50 1
  47   23   51 1
  48   23   52 1
  49   23   53 1
  50   24   54 1
  51   24   55 1
  52   24   56 1
  53   25   26 1
  54   25   57 1
  55   25   58 1
  56   26   59 1
  57   28   30 ar
  58   28   34 ar
  59   30   31 ar
  60   30   60 1
  61   31   32 ar
  62   31   61 1
  63   32   33 ar
  64   32   62 1
  65   33   34 ar
  66   33   63 1
  67   34   64 1

#	End of record

