#	Name: ASD03330682
#	Creating user name:	WinNT
#	Creation time:	15. 06. 2019 20:37

#	Modifying user name:	WinNT
#	Modification time:	15. 06. 2019 20:37

#	Program:	/corina/corina34_cracker 3.40 0067  02.08.2006

@<TRIPOS>MOLECULE
ASD03330682
  56   58    0    0    0
SMALL
NO_CHARGES


@<TRIPOS>ATOM
   1 C1            -0.0029     1.3580    -0.1259 C.2     
   2 N2             0.0177     0.0074    -0.2171 N.pl3   
   3 C3             1.2717     1.7630     0.1332 C.2     
   4 N4             2.0523     0.6615     0.1791 N.2     
   5 C5             1.3078    -0.3976    -0.0361 C.2     
   6 C6             1.7873    -1.7968    -0.0750 C.ar    
   7 C7             1.7190     3.1536     0.3277 C.2     
   8 O8             0.9168     4.0653     0.2614 O.2     
   9 C9             3.4617     4.7975     0.7723 C.3     
  10 N10            3.0171     3.4150     0.5790 N.am    
  11 C11            4.9472     4.9090     0.4232 C.3     
  12 C12            5.1597     4.5044    -1.0369 C.3     
  13 C13            5.4116     6.3527     0.6251 C.3     
  14 C14            5.7558     3.9813     1.3323 C.3     
  15 C15            3.2524     5.1960     2.2106 C.2     
  16 O16            3.5905     6.4283     2.6216 O.3     
  17 O17            2.7803     4.4063     2.9937 O.2     
  18 C18           -1.1496    -0.8467    -0.4534 C.3     
  19 C19           -1.9684    -0.2701    -1.6126 C.3     
  20 C20           -2.9674     0.7519    -1.0793 C.3     
  21 N21           -2.4180     1.4729     0.0709 N.3     
  22 C22           -1.2162     2.2342    -0.3007 C.3     
  23 C23            3.0773    -2.0830    -0.5227 C.ar    
  24 C24            0.9533    -2.8349     0.3411 C.ar    
  25 C25            1.4064    -4.1375     0.3023 C.ar    
  26 C26            2.6848    -4.4153    -0.1476 C.ar    
  27 C27            3.5185    -3.3898    -0.5566 C.ar    
  28 C28           -3.4303     2.3491     0.6754 C.3     
  29 H29            2.8857     5.4584     0.1247 H       
  30 H30            3.6569     2.6879     0.6319 H       
  31 H31            4.5836     5.1653    -1.6846 H       
  32 H32            6.2179     4.5838    -1.2857 H       
  33 H33            4.8288     3.4758    -1.1808 H       
  34 H34            5.2602     6.6410     1.6654 H       
  35 H35            6.4698     6.4322     0.3764 H       
  36 H36            4.8355     7.0136    -0.0225 H       
  37 H37            5.4249     2.9527     1.1885 H       
  38 H38            6.8140     4.0607     1.0836 H       
  39 H39            5.6044     4.2695     2.3726 H       
  40 H40            3.4376     6.6377     3.5531 H       
  41 H41           -0.8187    -1.8539    -0.7068 H       
  42 H42           -1.7647    -0.8799     0.4459 H       
  43 H43           -1.2990     0.2140    -2.3236 H       
  44 H44           -2.5059    -1.0758    -2.1127 H       
  45 H45           -3.2053     1.4652    -1.8685 H       
  46 H46           -3.8792     0.2370    -0.7768 H       
  47 H47           -1.1278     3.1112     0.3406 H       
  48 H48           -1.2916     2.5488    -1.3415 H       
  49 H49            3.7291    -1.2833    -0.8422 H       
  50 H50           -0.0446    -2.6192     0.6932 H       
  51 H51            0.7617    -4.9421     0.6242 H       
  52 H52            3.0350    -5.4365    -0.1753 H       
  53 H53            4.5154    -3.6131    -0.9072 H       
  54 H54           -4.2766     1.7494     1.0105 H       
  55 H55           -2.9959     2.8725     1.5271 H       
  56 H56           -3.7696     3.0756    -0.0630 H       
@<TRIPOS>BOND
   1    1    2 1
   2    1    3 2
   3    1   22 1
   4    2   18 1
   5    2    5 1
   6    3    4 1
   7    3    7 1
   8    4    5 2
   9    5    6 1
  10    6   23 ar
  11    6   24 ar
  12    7    8 2
  13    7   10 am
  14    9   10 1
  15    9   11 1
  16    9   15 1
  17    9   29 1
  18   10   30 1
  19   11   12 1
  20   11   13 1
  21   11   14 1
  22   12   31 1
  23   12   32 1
  24   12   33 1
  25   13   34 1
  26   13   35 1
  27   13   36 1
  28   14   37 1
  29   14   38 1
  30   14   39 1
  31   15   16 1
  32   15   17 2
  33   16   40 1
  34   18   19 1
  35   18   41 1
  36   18   42 1
  37   19   20 1
  38   19   43 1
  39   19   44 1
  40   20   21 1
  41   20   45 1
  42   20   46 1
  43   21   22 1
  44   21   28 1
  45   22   47 1
  46   22   48 1
  47   23   27 ar
  48   23   49 1
  49   24   25 ar
  50   24   50 1
  51   25   26 ar
  52   25   51 1
  53   26   27 ar
  54   26   52 1
  55   27   53 1
  56   28   54 1
  57   28   55 1
  58   28   56 1

#	End of record

