#	Name: ASD01028337
#	Creating user name:	WinNT
#	Creation time:	15. 06. 2019 18:57

#	Modifying user name:	WinNT
#	Modification time:	15. 06. 2019 18:57

#	Program:	/corina/corina34_cracker 3.40 0067  02.08.2006

@<TRIPOS>MOLECULE
ASD01028337
  43   46    0    0    0
SMALL
NO_CHARGES


@<TRIPOS>ATOM
   1 C1            -0.0168     1.3864     0.0097 C.ar    
   2 C2             0.0021    -0.0041     0.0020 C.ar    
   3 C3             1.1922     2.0778     0.0018 C.ar    
   4 C4             2.3741     1.3432    -0.0134 C.ar    
   5 C5             2.3118    -0.0390    -0.0202 C.ar    
   6 N6             1.1543    -0.6647    -0.0125 N.ar    
   7 O7             1.2171     3.4351     0.0084 O.3     
   8 C8             2.5020     4.0604    -0.0004 C.3     
   9 C9             2.3320     5.5578     0.0087 C.2     
  10 N10            2.2523     6.3444     1.1041 N.pl3   
  11 C11            2.1023     7.6292     0.6382 C.2     
  12 N12            2.0986     7.5593    -0.6829 N.2     
  13 N13            2.2406     6.3317    -1.0440 N.2     
  14 N14            2.2923     6.0981     2.4779 N.2     
  15 C15            2.1874     7.0885     3.3361 C.2     
  16 C16            2.0320     8.4179     2.8892 C.2     
  17 C17            1.9904     8.6890     1.5580 C.2     
  18 C18            2.2324     6.8051     4.7917 C.ar    
  19 C19           -1.2750    -0.7556     0.0107 C.2     
  20 O20           -2.3323    -0.1569     0.0244 O.2     
  21 C21            2.1165     7.8461     5.7108 C.ar    
  22 C22            2.3850     5.4961     5.2449 C.ar    
  23 C23            2.4263     5.2383     6.6001 C.ar    
  24 C24            2.3160     6.2761     7.5079 C.ar    
  25 C25            2.1590     7.5766     7.0637 C.ar    
  26 N26           -1.2638    -2.1033     0.0033 N.am    
  27 C27           -2.5264    -2.8464     0.0119 C.3     
  28 H28           -0.9546     1.9220     0.0170 H       
  29 H29            3.3296     1.8466    -0.0202 H       
  30 H30            3.2267    -0.6127    -0.0324 H       
  31 H31            3.0618     3.7529     0.8828 H       
  32 H32            3.0452     3.7619    -0.8971 H       
  33 H33            1.9468     9.2212     3.6060 H       
  34 H34            1.8720     9.7046     1.2103 H       
  35 H35            1.9939     8.8619     5.3651 H       
  36 H36            2.4705     4.6850     4.5370 H       
  37 H37            2.5445     4.2242     6.9524 H       
  38 H38            2.3481     6.0697     8.5675 H       
  39 H39            2.0734     8.3832     7.7769 H       
  40 H40           -0.4198    -2.5813    -0.0076 H       
  41 H41           -3.0912    -2.5926     0.9089 H       
  42 H42           -3.1089    -2.5831    -0.8710 H       
  43 H43           -2.3184    -3.9163     0.0041 H       
@<TRIPOS>BOND
   1    1    2 ar
   2    1    3 ar
   3    1   28 1
   4    2   19 1
   5    2    6 ar
   6    3    4 ar
   7    3    7 1
   8    4    5 ar
   9    4   29 1
  10    5    6 ar
  11    5   30 1
  12    7    8 1
  13    8    9 1
  14    8   31 1
  15    8   32 1
  16    9   10 1
  17    9   13 2
  18   10   11 1
  19   10   14 1
  20   11   12 2
  21   11   17 1
  22   12   13 1
  23   14   15 2
  24   15   16 1
  25   15   18 1
  26   16   17 2
  27   16   33 1
  28   17   34 1
  29   18   22 ar
  30   18   21 ar
  31   19   20 2
  32   19   26 am
  33   21   25 ar
  34   21   35 1
  35   22   23 ar
  36   22   36 1
  37   23   24 ar
  38   23   37 1
  39   24   25 ar
  40   24   38 1
  41   25   39 1
  42   26   27 1
  43   26   40 1
  44   27   41 1
  45   27   42 1
  46   27   43 1

#	End of record

