#	Name: ASD04882304
#	Creating user name:	WinNT
#	Creation time:	15. 06. 2019 20:54

#	Modifying user name:	WinNT
#	Modification time:	15. 06. 2019 20:54

#	Program:	/corina/corina34_cracker 3.40 0067  02.08.2006

@<TRIPOS>MOLECULE
ASD04882304
  84   89    0    0    0
SMALL
NO_CHARGES


@<TRIPOS>ATOM
   1 N1             0.0747     1.2329     1.0146 N.am    
   2 C2             0.2133    -0.1309     0.7256 C.ar    
   3 C3            -0.9206    -0.9182     0.5064 C.ar    
   4 C4            -0.7845    -2.2715     0.2190 C.ar    
   5 C5             0.4673    -2.8414     0.1494 C.ar    
   6 C6             1.6054    -2.0599     0.3676 C.ar    
   7 C7             1.4716    -0.6979     0.6515 C.ar    
   8 N8            -2.1883    -0.3462     0.5762 N.3     
   9 C9            -2.9005    -0.4865    -0.7015 C.3     
  10 C10           -2.9685    -0.9278     1.6774 C.3     
  11 C11           -4.3218    -0.2190     1.7702 C.3     
  12 N12           -5.0340    -0.3593     0.4925 N.3     
  13 C13           -4.2538     0.2223    -0.6087 C.3     
  14 C14            2.9462    -2.6708     0.2934 C.2     
  15 O15            3.9358    -1.9901     0.4834 O.2     
  16 C16            1.0743     2.0885     0.7226 C.2     
  17 C17            0.8960     3.5270     0.9438 C.2     
  18 O18            2.1249     1.6671     0.2754 O.2     
  19 C19            1.8222     4.4985     0.6922 C.2     
  20 O20           -0.2140     4.1234     1.4259 O.3     
  21 C21           -0.0147     5.4463     1.4923 C.2     
  22 C22            1.2316     5.7210     1.0483 C.2     
  23 N23            3.0743    -3.9832     0.0150 N.am    
  24 C24           -6.3056     0.2144     0.5626 C.ar    
  25 C25           -6.4427     1.5932     0.6612 C.ar    
  26 C26           -7.4360    -0.5921     0.5281 C.ar    
  27 C27           -8.6918    -0.0216     0.5977 C.ar    
  28 C28           -8.8246     1.3510     0.7010 C.ar    
  29 C29           -7.7014     2.1572     0.7303 C.ar    
  30 C30           -5.2193     2.4726     0.6931 C.3     
  31 C31           -1.0170     6.4615     1.9780 C.3     
  32 C32           -7.2923    -2.0880     0.4145 C.3     
  33 C33            4.4058    -4.5898    -0.0587 C.3     
  34 C34            4.2708    -6.0782    -0.3864 C.3     
  35 C35            5.6613    -6.7117    -0.4634 C.3     
  36 N36            5.5320    -8.1368    -0.7773 N.am    
  37 C37            5.5124    -8.6402    -2.0235 C.2     
  38 C38            5.3570   -10.1442    -1.9746 C.3     
  39 C39            4.8691   -10.4285    -0.5352 C.3     
  40 C40            5.4136    -9.1989     0.2287 C.3     
  41 O41            5.6052    -7.9841    -3.0392 O.2     
  42 C42           -2.3464     6.5570     1.2266 C.3     
  43 C43           -2.3001     5.9345     2.6235 C.3     
  44 H44           -0.7422     1.5619     1.4211 H       
  45 H45           -1.6625    -2.8774     0.0504 H       
  46 H46            0.5697    -3.8931    -0.0737 H       
  47 H47            2.3492    -0.0915     0.8202 H       
  48 H48           -2.3086    -0.0373    -1.4990 H       
  49 H49           -3.0576    -1.5436    -0.9161 H       
  50 H50           -3.1264    -1.9899     1.4899 H       
  51 H51           -2.4262    -0.8003     2.6143 H       
  52 H52           -4.9136    -0.6682     2.5677 H       
  53 H53           -4.1646     0.8381     1.9848 H       
  54 H54           -4.0959     1.2844    -0.4212 H       
  55 H55           -4.7961     0.0949    -1.5456 H       
  56 H56            2.8165     4.3540     0.2960 H       
  57 H57            1.6878     6.6976     0.9806 H       
  58 H58            2.2850    -4.5262    -0.1365 H       
  59 H59           -9.5711    -0.6481     0.5709 H       
  60 H60           -9.8078     1.7946     0.7546 H       
  61 H61           -7.8087     3.2288     0.8111 H       
  62 H62           -5.0173     2.8507    -0.3091 H       
  63 H63           -5.3912     3.3099     1.3695 H       
  64 H64           -4.3644     1.8933     1.0420 H       
  65 H65           -0.5959     7.3850     2.3753 H       
  66 H66           -7.3236    -2.5326     1.4092 H       
  67 H67           -8.1087    -2.4867    -0.1877 H       
  68 H68           -6.3405    -2.3265    -0.0603 H       
  69 H69            4.9868    -4.0973    -0.8384 H       
  70 H70            4.9117    -4.4733     0.8998 H       
  71 H71            3.6898    -6.5707     0.3933 H       
  72 H72            3.7649    -6.1947    -1.3449 H       
  73 H73            6.2423    -6.2192    -1.2431 H       
  74 H74            6.1672    -6.5952     0.4950 H       
  75 H75            4.6148   -10.4749    -2.7013 H       
  76 H76            6.3143   -10.6327    -2.1565 H       
  77 H77            3.7807   -10.4684    -0.4929 H       
  78 H78            5.3070   -11.3492    -0.1496 H       
  79 H79            6.3872    -9.4255     0.6632 H       
  80 H80            4.7129    -8.8980     1.0075 H       
  81 H81           -2.8001     7.5434     1.1300 H       
  82 H82           -2.4960     5.8856     0.3811 H       
  83 H83           -2.4194     4.8535     2.6969 H       
  84 H84           -2.7234     6.5113     3.4458 H       
@<TRIPOS>BOND
   1    1    2 1
   2    1   16 am
   3    1   44 1
   4    2    3 ar
   5    2    7 ar
   6    3    4 ar
   7    3    8 1
   8    4    5 ar
   9    4   45 1
  10    5    6 ar
  11    5   46 1
  12    6    7 ar
  13    6   14 1
  14    7   47 1
  15    8    9 1
  16    8   10 1
  17    9   13 1
  18    9   48 1
  19    9   49 1
  20   10   11 1
  21   10   50 1
  22   10   51 1
  23   11   12 1
  24   11   52 1
  25   11   53 1
  26   12   13 1
  27   12   24 1
  28   13   54 1
  29   13   55 1
  30   14   15 2
  31   14   23 am
  32   16   18 2
  33   16   17 1
  34   17   19 2
  35   17   20 1
  36   19   22 1
  37   19   56 1
  38   20   21 1
  39   21   22 2
  40   21   31 1
  41   22   57 1
  42   23   33 1
  43   23   58 1
  44   24   25 ar
  45   24   26 ar
  46   25   30 1
  47   25   29 ar
  48   26   27 ar
  49   26   32 1
  50   27   28 ar
  51   27   59 1
  52   28   29 ar
  53   28   60 1
  54   29   61 1
  55   30   62 1
  56   30   63 1
  57   30   64 1
  58   31   42 1
  59   31   43 1
  60   31   65 1
  61   32   66 1
  62   32   67 1
  63   32   68 1
  64   33   34 1
  65   33   69 1
  66   33   70 1
  67   34   35 1
  68   34   71 1
  69   34   72 1
  70   35   36 1
  71   35   73 1
  72   35   74 1
  73   36   37 am
  74   36   40 1
  75   37   38 1
  76   37   41 2
  77   38   39 1
  78   38   75 1
  79   38   76 1
  80   39   40 1
  81   39   77 1
  82   39   78 1
  83   40   79 1
  84   40   80 1
  85   42   43 1
  86   42   81 1
  87   42   82 1
  88   43   83 1
  89   43   84 1

#	End of record

