#	Name: ASD01470013
#	Creating user name:	WinNT
#	Creation time:	15. 06. 2019 19:21

#	Modifying user name:	WinNT
#	Modification time:	15. 06. 2019 19:21

#	Program:	/corina/corina34_cracker 3.40 0067  02.08.2006

@<TRIPOS>MOLECULE
ASD01470013
  78   83    0    0    0
SMALL
NO_CHARGES


@<TRIPOS>ATOM
   1 N1            -1.6949     1.4178     0.5896 N.am    
   2 C2            -0.3622     0.9770     0.1866 C.3     
   3 C3             0.1860    -0.0665     1.1702 C.3     
   4 C4            -0.2772    -1.4727     0.8223 C.3     
   5 C5            -1.6492    -1.4619     0.1686 C.3     
   6 N6            -2.6144    -0.7373     0.9963 N.am    
   7 C7            -2.6508     0.6066     1.0132 C.2     
   8 O8            -3.6605     1.1246     1.4499 O.2     
   9 C9            -3.5567    -1.4905     1.8275 C.3     
  10 C10           -1.9907     2.8512     0.5264 C.3     
  11 C11           -1.7221     3.4792     1.8697 C.ar    
  12 C12           -2.9936    -1.6379     3.2176 C.ar    
  13 C13           -3.1368    -0.6209     4.1161 C.ar    
  14 C14           -2.6139    -0.7591     5.4068 C.ar    
  15 C15           -1.9458    -1.9459     5.7644 C.ar    
  16 C16           -1.8155    -2.9670     4.8261 C.ar    
  17 C17           -2.3386    -2.8105     3.5740 C.ar    
  18 C18           -0.4401     3.8810     2.1998 C.ar    
  19 C19           -0.1846     4.4585     3.4312 C.ar    
  20 C20           -1.2081     4.6370     4.3384 C.ar    
  21 C21           -2.5046     4.2338     4.0117 C.ar    
  22 C22           -2.7563     3.6573     2.7654 C.ar    
  23 C23           -2.5846     0.0994     6.5865 C.2     
  24 N24           -1.9562    -0.5421     7.5298 N.2     
  25 N25           -1.5489    -1.7979     7.0677 N.pl3   
  26 C26           -0.4365     0.3612    -1.2120 C.3     
  27 O27            1.6142    -0.0274     1.1402 O.3     
  28 C28            0.4195     1.1616    -2.1595 C.ar    
  29 C29            1.7215     0.7717    -2.4119 C.ar    
  30 C30            2.5067     1.5059    -3.2810 C.ar    
  31 C31            1.9898     2.6298    -3.8979 C.ar    
  32 C32            0.6876     3.0192    -3.6461 C.ar    
  33 C33           -0.0990     2.2825    -2.7804 C.ar    
  34 C34           -2.1286    -2.9024    -0.0204 C.3     
  35 O35           -0.3354    -2.2542     2.0172 O.3     
  36 C36           -1.2126    -3.6147    -0.9821 C.ar    
  37 C37           -0.0737    -4.2434    -0.5147 C.ar    
  38 C38            0.7665    -4.8967    -1.3968 C.ar    
  39 C39            0.4676    -4.9216    -2.7462 C.ar    
  40 C40           -0.6718    -4.2937    -3.2135 C.ar    
  41 C41           -1.5143    -3.6441    -2.3308 C.ar    
  42 C42           -3.6058     4.4218     4.9783 C.2     
  43 O43           -3.3827     5.0759     6.1347 O.3     
  44 O44           -4.7124     3.9865     4.7305 O.2     
  45 H45            0.3084     1.8360     0.1636 H       
  46 H46           -0.1558     0.1805     2.1753 H       
  47 H47            0.4402    -1.9248     0.1373 H       
  48 H48           -1.5785    -0.9792    -0.8062 H       
  49 H49           -4.5062    -0.9572     1.8748 H       
  50 H50           -3.7156    -2.4776     1.3933 H       
  51 H51           -1.3576     3.3200    -0.2269 H       
  52 H52           -3.0382     2.9947     0.2612 H       
  53 H53           -3.6505     0.2858     3.8326 H       
  54 H54           -1.3048    -3.8816     5.0889 H       
  55 H55           -2.2354    -3.6051     2.8498 H       
  56 H56            0.3651     3.7429     1.4934 H       
  57 H57            0.8185     4.7699     3.6825 H       
  58 H58           -1.0072     5.0872     5.2993 H       
  59 H59           -3.7567     3.3433     2.5064 H       
  60 H60           -3.0083     1.0898     6.6636 H       
  61 H61           -1.0635    -2.4582     7.5866 H       
  62 H62           -0.0753    -0.6666    -1.1761 H       
  63 H63           -1.4697     0.3713    -1.5591 H       
  64 H64            2.0375    -0.6598     1.7367 H       
  65 H65            2.1253    -0.1064    -1.9299 H       
  66 H66            3.5241     1.2017    -3.4777 H       
  67 H67            2.6035     3.2038    -4.5763 H       
  68 H68            0.2838     3.8974    -4.1279 H       
  69 H69           -1.1165     2.5867    -2.5838 H       
  70 H70           -2.1186    -3.4177     0.9401 H       
  71 H71           -3.1427    -2.8984    -0.4200 H       
  72 H72            0.5118    -2.3343     2.4764 H       
  73 H73            0.1598    -4.2239     0.5396 H       
  74 H74            1.6567    -5.3873    -1.0317 H       
  75 H75            1.1245    -5.4314    -3.4355 H       
  76 H76           -0.9052    -4.3129    -4.2678 H       
  77 H77           -2.4045    -3.1535    -2.6958 H       
  78 H78           -4.1127     5.1095     6.7679 H       
@<TRIPOS>BOND
   1    1    2 1
   2    1   10 1
   3    1    7 am
   4    2    3 1
   5    2   26 1
   6    2   45 1
   7    3    4 1
   8    3   27 1
   9    3   46 1
  10    4    5 1
  11    4   35 1
  12    4   47 1
  13    5    6 1
  14    5   34 1
  15    5   48 1
  16    6    7 am
  17    6    9 1
  18    7    8 2
  19    9   12 1
  20    9   49 1
  21    9   50 1
  22   10   11 1
  23   10   51 1
  24   10   52 1
  25   11   18 ar
  26   11   22 ar
  27   12   13 ar
  28   12   17 ar
  29   13   14 ar
  30   13   53 1
  31   14   15 ar
  32   14   23 1
  33   15   16 ar
  34   15   25 1
  35   16   17 ar
  36   16   54 1
  37   17   55 1
  38   18   19 ar
  39   18   56 1
  40   19   20 ar
  41   19   57 1
  42   20   21 ar
  43   20   58 1
  44   21   22 ar
  45   21   42 1
  46   22   59 1
  47   23   24 2
  48   23   60 1
  49   24   25 1
  50   25   61 1
  51   26   28 1
  52   26   62 1
  53   26   63 1
  54   27   64 1
  55   28   29 ar
  56   28   33 ar
  57   29   30 ar
  58   29   65 1
  59   30   31 ar
  60   30   66 1
  61   31   32 ar
  62   31   67 1
  63   32   33 ar
  64   32   68 1
  65   33   69 1
  66   34   36 1
  67   34   70 1
  68   34   71 1
  69   35   72 1
  70   36   37 ar
  71   36   41 ar
  72   37   38 ar
  73   37   73 1
  74   38   39 ar
  75   38   74 1
  76   39   40 ar
  77   39   75 1
  78   40   41 ar
  79   40   76 1
  80   41   77 1
  81   42   43 1
  82   42   44 2
  83   43   78 1

#	End of record

