#	Name: ASD01911086
#	Creating user name:	WinNT
#	Creation time:	15. 06. 2019 19:57

#	Modifying user name:	WinNT
#	Modification time:	15. 06. 2019 19:57

#	Program:	/corina/corina34_cracker 3.40 0067  02.08.2006

@<TRIPOS>MOLECULE
ASD01911086
  46   49    0    0    0
SMALL
NO_CHARGES


@<TRIPOS>ATOM
   1 N1            -0.3525     1.5951     0.2791 N.pl3   
   2 C2            -0.4206     0.2218     0.2617 C.2     
   3 N3            -1.4872    -0.5186     0.5077 N.2     
   4 C4            -1.0796    -1.7914     0.3743 C.2     
   5 N5             0.1821    -1.7691     0.0617 N.2     
   6 O6             0.5806    -0.6261    -0.0138 O.3     
   7 C7            -1.9305    -3.0221     0.5544 C.3     
   8 C8            -1.9504    -3.8244    -0.7487 C.3     
   9 C9            -2.8407    -5.0573    -0.5771 C.3     
  10 C10           -2.2662    -5.9470     0.5299 C.3     
  11 N11           -2.1082    -5.1423     1.7490 N.am    
  12 C12           -1.3458    -3.8886     1.6741 C.3     
  13 C13           -2.6523    -5.5466     2.9139 C.2     
  14 O14           -2.4502    -4.9129     3.9315 O.2     
  15 C15           -3.4944    -6.7597     2.9542 C.ar    
  16 C16           -3.0767    -7.9244     2.3067 C.ar    
  17 C17           -3.8663    -9.0535     2.3474 C.ar    
  18 C18           -5.0732    -9.0343     3.0297 C.ar    
  19 C19           -5.4929    -7.8804     3.6739 C.ar    
  20 C20           -4.7081    -6.7476     3.6447 C.ar    
  21 F21           -5.8433   -10.1437     3.0665 F       
  22 C22            0.8810     2.2359     0.1265 C.ar    
  23 C23            0.9443     3.4931    -0.4607 C.ar    
  24 C24            2.1642     4.1232    -0.6099 C.ar    
  25 C25            3.3218     3.5039    -0.1754 C.ar    
  26 C26            3.2623     2.2521     0.4092 C.ar    
  27 C27            2.0450     1.6192     0.5670 C.ar    
  28 H28           -1.1606     2.1194     0.3932 H       
  29 H29           -2.9468    -2.7267     0.8153 H       
  30 H30           -2.3432    -3.2019    -1.5526 H       
  31 H31           -0.9369    -4.1400    -0.9963 H       
  32 H32           -3.8484    -4.7433    -0.3052 H       
  33 H33           -2.8730    -5.6158    -1.5126 H       
  34 H34           -2.9482    -6.7747     0.7242 H       
  35 H35           -1.2960    -6.3352     0.2200 H       
  36 H36           -0.3005    -4.1090     1.4576 H       
  37 H37           -1.4204    -3.3583     2.6235 H       
  38 H38           -2.1370    -7.9403     1.7747 H       
  39 H39           -3.5444    -9.9547     1.8467 H       
  40 H40           -6.4340    -7.8707     4.2035 H       
  41 H41           -5.0358    -5.8494     4.1471 H       
  42 H42            0.0407     3.9771    -0.8005 H       
  43 H43            2.2141     5.1005    -1.0667 H       
  44 H44            4.2744     3.9988    -0.2933 H       
  45 H45            4.1683     1.7708     0.7468 H       
  46 H46            1.9991     0.6417     1.0240 H       
@<TRIPOS>BOND
   1    1    2 1
   2    1   22 1
   3    1   28 1
   4    2    3 2
   5    2    6 1
   6    3    4 1
   7    4    5 2
   8    4    7 1
   9    5    6 1
  10    7    8 1
  11    7   12 1
  12    7   29 1
  13    8    9 1
  14    8   30 1
  15    8   31 1
  16    9   10 1
  17    9   32 1
  18    9   33 1
  19   10   11 1
  20   10   34 1
  21   10   35 1
  22   11   12 1
  23   11   13 am
  24   12   36 1
  25   12   37 1
  26   13   14 2
  27   13   15 1
  28   15   16 ar
  29   15   20 ar
  30   16   17 ar
  31   16   38 1
  32   17   18 ar
  33   17   39 1
  34   18   19 ar
  35   18   21 1
  36   19   20 ar
  37   19   40 1
  38   20   41 1
  39   22   23 ar
  40   22   27 ar
  41   23   24 ar
  42   23   42 1
  43   24   25 ar
  44   24   43 1
  45   25   26 ar
  46   25   44 1
  47   26   27 ar
  48   26   45 1
  49   27   46 1

#	End of record

