#	Name: ASD03081308
#	Creating user name:	WinNT
#	Creation time:	15. 06. 2019 20:27

#	Modifying user name:	WinNT
#	Modification time:	15. 06. 2019 20:27

#	Program:	/corina/corina34_cracker 3.40 0067  02.08.2006

@<TRIPOS>MOLECULE
ASD03081308
  34   36    0    0    0
SMALL
NO_CHARGES


@<TRIPOS>ATOM
   1 O1            -0.0162     1.3446     0.0094 O.3     
   2 C2             0.0021    -0.0041     0.0020 C.2     
   3 N3             1.2619    -0.3802    -0.0120 N.2     
   4 N4             2.0183     0.6605    -0.0137 N.2     
   5 C5             1.2734     1.7417    -0.0007 C.2     
   6 C6             0.8557     4.2024     0.0156 C.ar    
   7 C7             1.7583     3.1372     0.0017 C.ar    
   8 C8             3.1307     3.4142    -0.0094 C.ar    
   9 C9             3.5325     4.7384    -0.0061 C.ar    
  10 C10            2.5752     5.7365     0.0079 C.ar    
  11 N11            1.2881     5.4461     0.0181 N.ar    
  12 C12           -1.1749    -0.8935     0.0092 C.ar    
  13 C13           -1.0053    -2.2853     0.0000 C.ar    
  14 C14           -2.1141    -3.1129     0.0073 C.ar    
  15 C15           -3.3891    -2.5657     0.0237 C.ar    
  16 C16           -3.5591    -1.1864     0.0324 C.ar    
  17 C17           -2.4622    -0.3525     0.0310 C.ar    
  18 O18           -4.4753    -3.3812     0.0309 O.3     
  19 C19           -5.7584    -2.7525     0.0478 C.3     
  20 O20            0.2431    -2.8192    -0.0164 O.3     
  21 C21            0.3388    -4.2450    -0.0250 C.3     
  22 H22           -0.2060     4.0046     0.0197 H       
  23 H23            3.8570     2.6149    -0.0199 H       
  24 H24            4.5828     4.9898    -0.0140 H       
  25 H25            2.8862     6.7707     0.0109 H       
  26 H26           -1.9872    -4.1854    -0.0001 H       
  27 H27           -4.5542    -0.7668     0.0444 H       
  28 H28           -2.5979     0.7189     0.0423 H       
  29 H29           -6.5368    -3.5156     0.0519 H       
  30 H30           -5.8492    -2.1360     0.9420 H       
  31 H31           -5.8680    -2.1265    -0.8378 H       
  32 H32           -0.1593    -4.6373    -0.9117 H       
  33 H33            1.3884    -4.5386    -0.0380 H       
  34 H34           -0.1398    -4.6466     0.8682 H       
@<TRIPOS>BOND
   1    1    2 1
   2    1    5 1
   3    2    3 2
   4    2   12 1
   5    3    4 1
   6    4    5 2
   7    5    7 1
   8    6    7 ar
   9    6   11 ar
  10    6   22 1
  11    7    8 ar
  12    8    9 ar
  13    8   23 1
  14    9   10 ar
  15    9   24 1
  16   10   11 ar
  17   10   25 1
  18   12   13 ar
  19   12   17 ar
  20   13   14 ar
  21   13   20 1
  22   14   15 ar
  23   14   26 1
  24   15   16 ar
  25   15   18 1
  26   16   17 ar
  27   16   27 1
  28   17   28 1
  29   18   19 1
  30   19   29 1
  31   19   30 1
  32   19   31 1
  33   20   21 1
  34   21   32 1
  35   21   33 1
  36   21   34 1

#	End of record

