#	Name: ASD01140554
#	Creating user name:	WinNT
#	Creation time:	15. 06. 2019 19:01

#	Modifying user name:	WinNT
#	Modification time:	15. 06. 2019 19:01

#	Program:	/corina/corina34_cracker 3.40 0067  02.08.2006

@<TRIPOS>MOLECULE
ASD01140554
  71   75    0    0    0
SMALL
NO_CHARGES


@<TRIPOS>ATOM
   1 C1            -0.3589     1.6920     0.2637 C.3     
   2 C2            -0.4433     0.1670     0.3501 C.3     
   3 C3             0.2697    -0.4521    -0.8537 C.3     
   4 C4             1.7381    -0.0223    -0.8522 C.3     
   5 C5             1.8224     1.5025    -0.9394 C.3     
   6 C6             1.1092     2.1241     0.2632 C.3     
   7 C7             1.1902     3.6483     0.1690 C.3     
   8 C8             3.2899     1.9345    -0.9424 C.3     
   9 C9             3.3736     3.4596    -1.0322 C.3     
  10 C10            2.6649     4.0800     0.1727 C.3     
  11 C11            0.5520     5.8173     1.3039 C.3     
  12 C12            0.4184     4.2850     1.3198 C.3     
  13 C13            2.0315     6.1419     1.3721 C.3     
  14 C14            2.4057     7.6205     1.3560 C.3     
  15 C15            2.6886     5.5941     0.0762 C.3     
  16 C16            4.0738     6.2472     0.1306 C.3     
  17 C17            3.7574     7.6927     0.6029 C.3     
  18 C18            0.1846    -1.9774    -0.7681 C.3     
  19 H19            1.3446     1.8403    -1.8590 H       
  20 C20            1.7807     1.6532     1.5548 C.3     
  21 H21            3.1440     3.7470     1.0934 H       
  22 C22            2.6540     5.4638     2.5942 C.3     
  23 C23            2.5643     8.1344     2.7638 C.2     
  24 O24            3.6528     8.1366     3.2867 O.2     
  25 C25            1.3644     8.6454     3.5190 C.3     
  26 N26            1.7783     9.0844     4.8540 N.pl3   
  27 O27           -0.3559    -0.0068    -2.0589 O.3     
  28 H28            0.7321     3.9678    -0.7670 H       
  29 H29            2.1346     5.9264    -0.8017 H       
  30 O30           -1.1869    -2.3787    -0.7687 O.3     
  31 C31           -1.3789    -3.7926    -0.6913 C.3     
  32 C32            2.2597     9.1089     6.9804 C.2     
  33 C33            1.8274     8.3130     5.9837 C.2     
  34 C34            2.1883    10.3241     5.1986 C.2     
  35 N35            2.4725    10.3318     6.4722 N.2     
  36 H36           -0.8375     2.0308    -0.6551 H       
  37 H37           -0.8669     2.1330     1.1214 H       
  38 H38            0.0346    -0.1719     1.2692 H       
  39 H39           -1.4893    -0.1396     0.3500 H       
  40 H40            2.2149    -0.3606     0.0678 H       
  41 H41            2.2470    -0.4640    -1.7090 H       
  42 H42            3.7695     1.5979    -0.0233 H       
  43 H43            3.7971     1.4918    -1.7997 H       
  44 H44            4.4194     3.7666    -1.0364 H       
  45 H45            2.8921     3.7965    -1.9502 H       
  46 H46            0.1267     6.2171     0.3833 H       
  47 H47            0.0388     6.2432     2.1661 H       
  48 H48           -0.6349     4.0179     1.2338 H       
  49 H49            0.8062     3.9029     2.2640 H       
  50 H50            1.6469     8.1964     0.8262 H       
  51 H51            4.7128     5.7371     0.8514 H       
  52 H52            4.5351     6.2563    -0.8569 H       
  53 H53            3.6715     8.3568    -0.2572 H       
  54 H54            4.5406     8.0472     1.2730 H       
  55 H55            0.6926    -2.4184    -1.6257 H       
  56 H56            0.6620    -2.3169     0.1511 H       
  57 H57            1.7221     0.5667     1.6196 H       
  58 H58            2.8263     1.9613     1.5539 H       
  59 H59            1.2722     2.0962     2.4111 H       
  60 H60            2.4778     4.3894     2.5427 H       
  61 H61            3.7268     5.6558     2.6092 H       
  62 H62            2.2007     5.8632     3.5015 H       
  63 H63            0.9265     9.4854     2.9798 H       
  64 H64            0.6266     7.8484     3.6111 H       
  65 H65           -1.2907    -0.2444    -2.1278 H       
  66 H66           -0.9338    -4.1698     0.2295 H       
  67 H67           -2.4459    -4.0153    -0.6969 H       
  68 H68           -0.9033    -4.2712    -1.5473 H       
  69 H69            2.4111     8.8135     8.0081 H       
  70 H70            1.5685     7.2674     6.0611 H       
  71 H71            2.2683    11.1690     4.5307 H       
@<TRIPOS>BOND
   1    1    2 1
   2    1    6 1
   3    1   36 1
   4    1   37 1
   5    2    3 1
   6    2   38 1
   7    2   39 1
   8    3    4 1
   9    3   18 1
  10    3   27 1
  11    4    5 1
  12    4   40 1
  13    4   41 1
  14    5    6 1
  15    5    8 1
  16    5   19 1
  17    6    7 1
  18    6   20 1
  19    7   10 1
  20    7   28 1
  21    7   12 1
  22    8    9 1
  23    8   42 1
  24    8   43 1
  25    9   10 1
  26    9   44 1
  27    9   45 1
  28   10   15 1
  29   10   21 1
  30   11   12 1
  31   11   13 1
  32   11   46 1
  33   11   47 1
  34   12   48 1
  35   12   49 1
  36   13   15 1
  37   13   22 1
  38   13   14 1
  39   14   17 1
  40   14   23 1
  41   14   50 1
  42   15   16 1
  43   15   29 1
  44   16   17 1
  45   16   51 1
  46   16   52 1
  47   17   53 1
  48   17   54 1
  49   18   30 1
  50   18   55 1
  51   18   56 1
  52   20   57 1
  53   20   58 1
  54   20   59 1
  55   22   60 1
  56   22   61 1
  57   22   62 1
  58   23   24 2
  59   23   25 1
  60   25   26 1
  61   25   63 1
  62   25   64 1
  63   26   34 1
  64   26   33 1
  65   27   65 1
  66   30   31 1
  67   31   66 1
  68   31   67 1
  69   31   68 1
  70   32   33 2
  71   32   35 1
  72   32   69 1
  73   33   70 1
  74   34   35 2
  75   34   71 1

#	End of record

