#	Name: ASD01918112
#	Creating user name:	WinNT
#	Creation time:	15. 06. 2019 20:10

#	Modifying user name:	WinNT
#	Modification time:	15. 06. 2019 20:10

#	Program:	/corina/corina34_cracker 3.40 0067  02.08.2006

@<TRIPOS>MOLECULE
ASD01918112
  37   39    0    0    0
SMALL
NO_CHARGES


@<TRIPOS>ATOM
   1 N1            -0.0167     1.3957     0.0056 N.am    
   2 C2             0.0027    -0.0037     0.0074 C.2     
   3 C3             2.4224    -0.1116    -0.5762 C.3     
   4 C4             2.1955     1.3355    -1.0279 C.3     
   5 C5             1.3002     2.0626    -0.0184 C.3     
   6 C6            -0.9978    -0.8769     0.2518 C.2     
   7 C7            -0.4708    -2.1694     0.1335 C.2     
   8 N8             0.8010    -2.0714    -0.1714 N.2     
   9 N9             1.1272    -0.7187    -0.2588 N.pl3   
  10 C10           -1.2351    -3.4541     0.3247 C.3     
  11 O11           -2.5945    -3.1558     0.6487 O.3     
  12 C12           -1.1698     2.0934     0.0191 C.2     
  13 O13           -2.2311     1.5125    -0.0668 O.2     
  14 C14           -3.4256    -4.2112     0.8545 C.ar    
  15 C15           -4.7582    -3.9941     1.1725 C.ar    
  16 C16           -5.6020    -5.0703     1.3810 C.ar    
  17 C17           -5.1159    -6.3629     1.2725 C.ar    
  18 C18           -3.7881    -6.5794     0.9560 C.ar    
  19 C19           -2.9436    -5.5071     0.7410 C.ar    
  20 C20           -1.1405     3.5952     0.1408 C.3     
  21 F21           -6.9002    -4.8607     1.6908 F       
  22 H22            2.9020    -0.6733    -1.3779 H       
  23 H23            3.0574    -0.1222     0.3096 H       
  24 H24            3.1550     1.8483    -1.0960 H       
  25 H25            1.7147     1.3384    -2.0062 H       
  26 H26            1.1783     3.1030    -0.3198 H       
  27 H27            1.7524     2.0159     0.9723 H       
  28 H28           -2.0194    -0.6245     0.4949 H       
  29 H29           -1.2004    -4.0378    -0.5952 H       
  30 H30           -0.7856    -4.0270     1.1358 H       
  31 H31           -5.1364    -2.9861     1.2576 H       
  32 H32           -5.7753    -7.2025     1.4357 H       
  33 H33           -3.4112    -7.5881     0.8723 H       
  34 H34           -1.9062    -5.6778     0.4938 H       
  35 H35           -0.1143     3.9269     0.2990 H       
  36 H36           -1.5297     4.0415    -0.7742 H       
  37 H37           -1.7562     3.9033     0.9858 H       
@<TRIPOS>BOND
   1    1    2 1
   2    1    5 1
   3    1   12 am
   4    2    6 2
   5    2    9 1
   6    3    4 1
   7    3    9 1
   8    3   22 1
   9    3   23 1
  10    4    5 1
  11    4   24 1
  12    4   25 1
  13    5   26 1
  14    5   27 1
  15    6    7 1
  16    6   28 1
  17    7    8 2
  18    7   10 1
  19    8    9 1
  20   10   11 1
  21   10   29 1
  22   10   30 1
  23   11   14 1
  24   12   13 2
  25   12   20 1
  26   14   15 ar
  27   14   19 ar
  28   15   16 ar
  29   15   31 1
  30   16   17 ar
  31   16   21 1
  32   17   18 ar
  33   17   32 1
  34   18   19 ar
  35   18   33 1
  36   19   34 1
  37   20   35 1
  38   20   36 1
  39   20   37 1

#	End of record

