#	Name: ASD01900862
#	Creating user name:	WinNT
#	Creation time:	15. 06. 2019 19:52

#	Modifying user name:	WinNT
#	Modification time:	15. 06. 2019 19:52

#	Program:	/corina/corina34_cracker 3.40 0067  02.08.2006

@<TRIPOS>MOLECULE
ASD01900862
  29   30    0    0    0
SMALL
NO_CHARGES


@<TRIPOS>ATOM
   1 C1            -0.0087     1.3697     0.0428 C.ar    
   2 C2            -0.0806     0.1153    -0.5412 C.ar    
   3 C3             1.0392    -0.4069    -1.1697 C.ar    
   4 C4             2.1991     0.3512    -1.1911 C.ar    
   5 C5             2.1994     1.6050    -0.5834 C.ar    
   6 N6             1.1052     2.0682     0.0081 N.ar    
   7 C7             3.4312     2.4275    -0.5970 C.2     
   8 N8             3.4376     3.6411    -0.0108 N.am    
   9 O9             4.4360     2.0081    -1.1367 O.2     
  10 C10            4.6283     4.3702     0.0747 C.ar    
  11 C11            4.6042     5.7542    -0.0267 C.ar    
  12 C12            5.7858     6.4735     0.0585 C.ar    
  13 C13            6.9904     5.8085     0.2449 C.ar    
  14 C14            7.0122     4.4294     0.3453 C.ar    
  15 C15            5.8355     3.7101     0.2670 C.ar    
  16 Cl16           8.4706     6.7092     0.3517 Cl      
  17 O17            5.7655     7.8289    -0.0409 O.3     
  18 C18            4.4911     8.4463    -0.2326 C.3     
  19 H19           -0.8806     1.7815     0.5294 H       
  20 H20           -1.0000    -0.4503    -0.5067 H       
  21 H21            1.0085    -1.3825    -1.6319 H       
  22 H22            3.0903    -0.0247    -1.6716 H       
  23 H23            2.6166     4.0090     0.3517 H       
  24 H24            3.6664     6.2697    -0.1721 H       
  25 H25            7.9504     3.9142     0.4896 H       
  26 H26            5.8551     2.6331     0.3460 H       
  27 H27            4.0442     8.0782    -1.1561 H       
  28 H28            3.8402     8.2045     0.6076 H       
  29 H29            4.6168     9.5272    -0.2954 H       
@<TRIPOS>BOND
   1    1    2 ar
   2    1    6 ar
   3    1   19 1
   4    2    3 ar
   5    2   20 1
   6    3    4 ar
   7    3   21 1
   8    4    5 ar
   9    4   22 1
  10    5    6 ar
  11    5    7 1
  12    7    8 am
  13    7    9 2
  14    8   10 1
  15    8   23 1
  16   10   11 ar
  17   10   15 ar
  18   11   12 ar
  19   11   24 1
  20   12   13 ar
  21   12   17 1
  22   13   14 ar
  23   13   16 1
  24   14   15 ar
  25   14   25 1
  26   15   26 1
  27   17   18 1
  28   18   27 1
  29   18   28 1
  30   18   29 1

#	End of record

