#	Name: ASD02562105
#	Creating user name:	WinNT
#	Creation time:	15. 06. 2019 20:25

#	Modifying user name:	WinNT
#	Modification time:	15. 06. 2019 20:25

#	Program:	/corina/corina34_cracker 3.40 0067  02.08.2006

@<TRIPOS>MOLECULE
ASD02562105
  50   54    0    0    0
SMALL
NO_CHARGES


@<TRIPOS>ATOM
   1 C1             0.0930     1.8418    -0.7994 C.ar    
   2 N2             0.5227     0.9013    -1.6247 N.ar    
   3 C3            -0.2072     0.5375    -2.6743 C.ar    
   4 C4            -1.4440     1.1646    -2.8984 C.ar    
   5 C5            -1.8607     2.1583    -1.9952 C.ar    
   6 N6            -1.0707     2.4563    -0.9699 N.ar    
   7 N7            -3.0704     2.8091    -2.1684 N.pl3   
   8 N8             0.8833     2.1935     0.2843 N.pl3   
   9 C9            -3.5235     3.7111    -1.2015 C.ar    
  10 C10            2.0814     1.5220     0.5201 C.ar    
  11 C11            3.2930     2.1902     0.3685 C.ar    
  12 C12           -4.2743     4.8226    -1.5859 C.ar    
  13 C13           -4.4357     5.5167     0.7002 C.ar    
  14 C14           -3.6836     4.3944     1.0907 C.ar    
  15 C15           -3.2304     3.4950     0.1335 C.ar    
  16 C16            2.0629     0.1865     0.9120 C.ar    
  17 C17            3.2437    -0.4803     1.1463 C.ar    
  18 C18            4.4647     0.1863     0.9895 C.ar    
  19 C19            4.4785     1.5309     0.6003 C.ar    
  20 C20            3.3066     3.6377    -0.0506 C.3     
  21 C21            0.7479    -0.5300     1.0805 C.3     
  22 C22            5.7284    -0.5219     1.2387 C.2     
  23 C23            6.9048     0.1228     1.0869 C.2     
  24 C24            8.1359    -0.5672     1.3296 C.1     
  25 N25            9.1126    -1.1145     1.5222 N.1     
  26 N26           -0.0552    -0.3734    -3.6890 N.pl3   
  27 C27           -1.1609    -0.2883    -4.4837 C.2     
  28 N28           -1.9740     0.6144    -4.0181 N.2     
  29 C29           -4.7248     5.7124    -0.6571 C.ar    
  30 N30           -4.7418     6.2112     1.8147 N.2     
  31 N31           -4.2536     5.6289     2.8525 N.2     
  32 N32           -3.5698     4.4690     2.4590 N.pl3   
  33 H33           -3.6035     2.6391    -2.9607 H       
  34 H34            0.6022     2.9070     0.8782 H       
  35 H35           -4.5004     4.9796    -2.6302 H       
  36 H36           -2.6529     2.6318     0.4298 H       
  37 H37            3.2285    -1.5163     1.4511 H       
  38 H38            5.4182     2.0489     0.4781 H       
  39 H39            3.2756     4.2726     0.8348 H       
  40 H40            4.2164     3.8443    -0.6141 H       
  41 H41            2.4375     3.8432    -0.6756 H       
  42 H42            0.5085    -1.0702     0.1645 H       
  43 H43            0.8215    -1.2345     1.9090 H       
  44 H44           -0.0374     0.1963     1.2898 H       
  45 H45            5.7158    -1.5580     1.5432 H       
  46 H46            6.9173     1.1589     0.7824 H       
  47 H47            0.7000    -0.9683    -3.8180 H       
  48 H48           -1.3354    -0.8824    -5.3685 H       
  49 H49           -5.3048     6.5691    -0.9673 H       
  50 H50           -3.1082     3.8426     3.0381 H       
@<TRIPOS>BOND
   1    1    2 ar
   2    1    8 1
   3    1    6 ar
   4    2    3 ar
   5    3    4 ar
   6    3   26 1
   7    4    5 ar
   8    4   28 1
   9    5    6 ar
  10    5    7 1
  11    7    9 1
  12    7   33 1
  13    8   10 1
  14    8   34 1
  15    9   12 ar
  16    9   15 ar
  17   10   11 ar
  18   10   16 ar
  19   11   20 1
  20   11   19 ar
  21   12   29 ar
  22   12   35 1
  23   13   14 ar
  24   13   30 1
  25   13   29 ar
  26   14   15 ar
  27   14   32 1
  28   15   36 1
  29   16   17 ar
  30   16   21 1
  31   17   18 ar
  32   17   37 1
  33   18   19 ar
  34   18   22 1
  35   19   38 1
  36   20   39 1
  37   20   40 1
  38   20   41 1
  39   21   42 1
  40   21   43 1
  41   21   44 1
  42   22   23 2
  43   22   45 1
  44   23   24 1
  45   23   46 1
  46   24   25 3
  47   26   27 1
  48   26   47 1
  49   27   28 2
  50   27   48 1
  51   29   49 1
  52   30   31 2
  53   31   32 1
  54   32   50 1

#	End of record

