#	Name: ASD01903180
#	Creating user name:	WinNT
#	Creation time:	15. 06. 2019 19:54

#	Modifying user name:	WinNT
#	Modification time:	15. 06. 2019 19:54

#	Program:	/corina/corina34_cracker 3.40 0067  02.08.2006

@<TRIPOS>MOLECULE
ASD01903180
  36   39    0    0    0
SMALL
NO_CHARGES


@<TRIPOS>ATOM
   1 S1            -0.0242     1.7576    -0.0291 S.3     
   2 C2             0.0013    -0.0032    -0.0096 C.2     
   3 N3             1.2320    -0.4153    -0.0145 N.2     
   4 C4             2.1769     0.5141    -0.0323 C.2     
   5 C5             1.7377     1.7832    -0.0432 C.2     
   6 N6            -1.1185    -0.8216     0.0090 N.pl3   
   7 C7            -2.3869    -0.2623     0.1294 C.ar    
   8 N8            -2.5132     1.0402     0.3311 N.ar    
   9 C9            -3.6973     1.6102     0.4504 C.ar    
  10 C10           -4.8547     0.8623     0.3684 C.ar    
  11 C11           -4.7658    -0.5075     0.1575 C.ar    
  12 C12           -3.5112    -1.0759     0.0312 C.ar    
  13 C13            3.6232     0.1751    -0.0393 C.2     
  14 C14            4.6922     1.0913    -0.0569 C.2     
  15 N15            5.8094     0.4128    -0.0571 N.2     
  16 N16            5.5003    -0.9527    -0.0397 N.pl3   
  17 C17            4.1565    -1.0800    -0.0239 C.2     
  18 C18            3.3852    -2.3745    -0.0015 C.3     
  19 C19            3.0002    -2.7636    -1.4302 C.3     
  20 C20            2.3100    -4.1139    -1.6331 C.3     
  21 C21            1.5095    -2.8172    -1.7704 C.3     
  22 H22            2.3578     2.6674    -0.0586 H       
  23 H23           -1.0174    -1.7837    -0.0619 H       
  24 H24           -3.7618     2.6757     0.6146 H       
  25 H25           -5.8194     1.3375     0.4675 H       
  26 H26           -5.6564    -1.1146     0.0896 H       
  27 H27           -3.4055    -2.1380    -0.1335 H       
  28 H28            4.6043     2.1676    -0.0686 H       
  29 H29            6.1409    -1.6811    -0.0364 H       
  30 H30            4.0042    -3.1587     0.4343 H       
  31 H31            2.4827    -2.2494     0.5967 H       
  32 H32            3.6828    -2.4251    -2.2098 H       
  33 H33            2.5382    -4.6636    -2.5462 H       
  34 H34            2.1302    -4.7251    -0.7486 H       
  35 H35            0.8030    -2.5754    -0.9764 H       
  36 H36            1.2110    -2.5139    -2.7739 H       
@<TRIPOS>BOND
   1    1    2 1
   2    1    5 1
   3    2    3 2
   4    2    6 1
   5    3    4 1
   6    4    5 2
   7    4   13 1
   8    5   22 1
   9    6    7 1
  10    6   23 1
  11    7    8 ar
  12    7   12 ar
  13    8    9 ar
  14    9   10 ar
  15    9   24 1
  16   10   11 ar
  17   10   25 1
  18   11   12 ar
  19   11   26 1
  20   12   27 1
  21   13   14 1
  22   13   17 2
  23   14   15 2
  24   14   28 1
  25   15   16 1
  26   16   17 1
  27   16   29 1
  28   17   18 1
  29   18   19 1
  30   18   30 1
  31   18   31 1
  32   19   20 1
  33   19   21 1
  34   19   32 1
  35   20   21 1
  36   20   33 1
  37   20   34 1
  38   21   35 1
  39   21   36 1

#	End of record

