#	Name: ASD05430613
#	Creating user name:	WinNT
#	Creation time:	15. 06. 2019 21:00

#	Modifying user name:	WinNT
#	Modification time:	15. 06. 2019 21:00

#	Program:	/corina/corina34_cracker 3.40 0067  02.08.2006

@<TRIPOS>MOLECULE
ASD05430613
  16   16    0    0    0
SMALL
NO_CHARGES


@<TRIPOS>ATOM
   1 N1            -0.0154     1.2825     0.0091 N.2     
   2 N2             0.0021    -0.0041     0.0020 N.2     
   3 C3             1.2367    -0.4196    -0.0120 C.2     
   4 O4             2.0272     0.6669    -0.0137 O.3     
   5 C5             1.2075     1.7315    -0.0002 C.2     
   6 C6             1.6943    -1.8554    -0.0241 C.3     
   7 C7             1.1734    -2.5672     1.2261 C.3     
   8 C8             1.1506    -2.5535    -1.2723 C.3     
   9 H9             1.5074     2.7690     0.0020 H       
  10 H10            2.7837    -1.8894    -0.0342 H       
  11 H11            1.5608    -2.0699     2.1153 H       
  12 H12            0.0840    -2.5332     1.2362 H       
  13 H13            1.5044    -3.6057     1.2173 H       
  14 H14            1.5217    -2.0464    -2.1629 H       
  15 H15            1.4816    -3.5920    -1.2810 H       
  16 H16            0.0612    -2.5194    -1.2621 H       
@<TRIPOS>BOND
   1    1    2 1
   2    1    5 2
   3    2    3 2
   4    3    4 1
   5    3    6 1
   6    4    5 1
   7    5    9 1
   8    6    7 1
   9    6    8 1
  10    6   10 1
  11    7   11 1
  12    7   12 1
  13    7   13 1
  14    8   14 1
  15    8   15 1
  16    8   16 1

#	End of record

