#	Name: ASD01410692
#	Creating user name:	WinNT
#	Creation time:	15. 06. 2019 19:18

#	Modifying user name:	WinNT
#	Modification time:	15. 06. 2019 19:18

#	Program:	/corina/corina34_cracker 3.40 0067  02.08.2006

@<TRIPOS>MOLECULE
ASD01410692
  67   70    0    0    0
SMALL
NO_CHARGES


@<TRIPOS>ATOM
   1 C1             4.1594     6.4888    -2.4241 C.ar    
   2 C2             5.2902     6.3485    -3.2165 C.ar    
   3 C3             6.1252     5.2668    -3.0169 C.ar    
   4 N4             5.8602     4.3708    -2.0856 N.ar    
   5 C5             4.7925     4.4700    -1.3106 C.ar    
   6 C6             3.9090     5.5320    -1.4557 C.ar    
   7 O7             4.5581     3.5254    -0.3655 O.3     
   8 C8             5.3864     2.4475    -0.3209 C.ar    
   9 C9             6.6156     2.5431     0.3268 C.ar    
  10 C10            7.4643     1.4528     0.3779 C.ar    
  11 C11            7.0953     0.2551    -0.2169 C.ar    
  12 C12            5.8572     0.1535    -0.8711 C.ar    
  13 C13            5.0034     1.2599    -0.9131 C.ar    
  14 F14            6.9808     3.7069     0.9076 F       
  15 N15            7.9508    -0.8432    -0.1657 N.am    
  16 C16            8.1150    -1.5161     0.9905 C.2     
  17 C17            8.6718    -1.2668    -1.3685 C.3     
  18 O18            8.9744    -2.3715     1.0792 O.2     
  19 C19            7.2515    -1.2145     2.1490 C.ar    
  20 C20            5.8837    -0.9956     1.9668 C.ar    
  21 C21            5.0827    -0.7150     3.0524 C.ar    
  22 C22            5.6295    -0.6492     4.3241 C.ar    
  23 C23            6.9826    -0.8645     4.5144 C.ar    
  24 C24            7.7977    -1.1523     3.4352 C.ar    
  25 C25            9.1498    -2.7098    -1.1950 C.3     
  26 C26            9.8790    -0.3527    -1.5879 C.3     
  27 C27            5.6031     7.3653    -4.2839 C.3     
  28 O28            9.4350     0.9992    -1.7198 O.3     
  29 C29           10.4903     1.9397    -1.9294 C.3     
  30 Br30           4.5207    -0.2627     5.8063 Br      
  31 C31            7.9609    -3.6001    -0.8279 C.3     
  32 N32            6.4358     8.4286    -3.7162 N.pl3   
  33 N33            7.7215     8.4167    -3.6944 N.2     
  34 C34            8.1436     9.5182    -3.1160 C.2     
  35 C35            6.9947    10.2337    -2.7711 C.2     
  36 N36            5.9806     9.5036    -3.1767 N.2     
  37 F37            9.1191    -1.3630     3.6212 F       
  38 C38            5.4576    -1.1138    -1.5057 C.2     
  39 O39            6.1518    -2.1030    -1.3773 O.2     
  40 O40            4.3221    -1.1766    -2.2289 O.3     
  41 C41            2.6944     5.6412    -0.5704 C.3     
  42 F42            1.9702     6.7885    -0.9117 F       
  43 F43            1.8875     4.5116    -0.7442 F       
  44 F44            3.0978     5.7249     0.7665 F       
  45 H45            3.4925     7.3278    -2.5569 H       
  46 H46            7.0062     5.1528    -3.6311 H       
  47 H47            8.4162     1.5339     0.8815 H       
  48 H48            4.0496     1.1885    -1.4146 H       
  49 H49            8.0079    -1.2051    -2.2308 H       
  50 H50            5.4550    -1.0459     0.9768 H       
  51 H51            4.0254    -0.5454     2.9117 H       
  52 H52            7.4024    -0.8118     5.5081 H       
  53 H53            9.5921    -3.0606    -2.1274 H       
  54 H54            9.8948    -2.7528    -0.4006 H       
  55 H55           10.5543    -0.4318    -0.7360 H       
  56 H56           10.4023    -0.6534    -2.4956 H       
  57 H57            6.1385     6.8815    -5.1008 H       
  58 H58            4.6744     7.7934    -4.6613 H       
  59 H59           10.0712     2.9419    -2.0194 H       
  60 H60           11.1782     1.9081    -1.0846 H       
  61 H61           11.0263     1.6865    -2.8441 H       
  62 H62            8.3228    -4.5820    -0.5228 H       
  63 H63            7.4067    -3.1458    -0.0066 H       
  64 H64            7.3061    -3.7069    -1.6928 H       
  65 H65            9.1688     9.8103    -2.9424 H       
  66 H66            6.9494    11.1927    -2.2764 H       
  67 H67            4.1013    -2.0301    -2.6263 H       
@<TRIPOS>BOND
   1    1    2 ar
   2    1    6 ar
   3    1   45 1
   4    2    3 ar
   5    2   27 1
   6    3    4 ar
   7    3   46 1
   8    4    5 ar
   9    5    6 ar
  10    5    7 1
  11    6   41 1
  12    7    8 1
  13    8    9 ar
  14    8   13 ar
  15    9   10 ar
  16    9   14 1
  17   10   11 ar
  18   10   47 1
  19   11   12 ar
  20   11   15 1
  21   12   13 ar
  22   12   38 1
  23   13   48 1
  24   15   16 am
  25   15   17 1
  26   16   18 2
  27   16   19 1
  28   17   25 1
  29   17   26 1
  30   17   49 1
  31   19   20 ar
  32   19   24 ar
  33   20   21 ar
  34   20   50 1
  35   21   22 ar
  36   21   51 1
  37   22   23 ar
  38   22   30 1
  39   23   24 ar
  40   23   52 1
  41   24   37 1
  42   25   31 1
  43   25   53 1
  44   25   54 1
  45   26   28 1
  46   26   55 1
  47   26   56 1
  48   27   32 1
  49   27   57 1
  50   27   58 1
  51   28   29 1
  52   29   59 1
  53   29   60 1
  54   29   61 1
  55   31   62 1
  56   31   63 1
  57   31   64 1
  58   32   33 1
  59   32   36 1
  60   33   34 2
  61   34   35 1
  62   34   65 1
  63   35   36 2
  64   35   66 1
  65   38   39 2
  66   38   40 1
  67   40   67 1
  68   41   42 1
  69   41   43 1
  70   41   44 1

#	End of record

