#	Name: ASD02198865
#	Creating user name:	WinNT
#	Creation time:	15. 06. 2019 20:20

#	Modifying user name:	WinNT
#	Modification time:	15. 06. 2019 20:20

#	Program:	/corina/corina34_cracker 3.40 0067  02.08.2006

@<TRIPOS>MOLECULE
ASD02198865
  54   58    0    0    0
SMALL
NO_CHARGES


@<TRIPOS>ATOM
   1 C1            -0.0436     1.5036    -0.1143 C.2     
   2 C2            -0.0739     0.1638     0.0984 C.2     
   3 N3             1.0701    -0.5382     0.2607 N.pl3   
   4 N4             2.2348    -0.0038     0.2269 N.2     
   5 C5             2.4067     1.2857     0.0285 C.2     
   6 C6             1.2214     2.1371    -0.1600 C.2     
   7 C7             0.9781    -1.9173     0.4769 C.ar    
   8 C8             1.5796    -2.4898     1.5970 C.ar    
   9 C9             1.4866    -3.8553     1.8080 C.ar    
  10 C10            0.7954    -4.6506     0.9047 C.ar    
  11 C11            0.1971    -4.0782    -0.2110 C.ar    
  12 C12            0.2827    -2.7168    -0.4208 C.ar    
  13 C13            3.7639     1.8676    -0.0040 C.2     
  14 N14            4.3062     2.6074    -1.0170 N.pl3   
  15 N15            5.6080     2.9590    -0.6389 N.2     
  16 C16            5.8514     2.4597     0.5466 C.2     
  17 C17            4.7194     1.7719     0.9839 C.2     
  18 C18            3.6736     2.9518    -2.2183 C.ar    
  19 C19            2.9116     2.0102    -2.8977 C.ar    
  20 C20            2.2877     2.3499    -4.0827 C.ar    
  21 C21            2.4202     3.6262    -4.5951 C.ar    
  22 C22            3.1810     4.5713    -3.9207 C.ar    
  23 C23            3.8029     4.2362    -2.7284 C.ar    
  24 O24            1.3247     3.3402    -0.3480 O.2     
  25 N25            0.7011    -6.0325     1.1180 N.pl3   
  26 C26            0.0516    -6.9228     0.3070 C.2     
  27 C27            0.1825    -8.1544     0.8433 C.2     
  28 C28            0.9392    -8.0233     2.0274 C.2     
  29 C29            1.2483    -6.7171     2.1688 C.2     
  30 F30           -0.3195    -9.3029     0.3390 F       
  31 F31            1.2942    -9.0233     2.8635 F       
  32 O32            3.3108     5.8261    -4.4261 O.3     
  33 C33            2.6373     6.1032    -5.6555 C.3     
  34 F34            1.2624     5.9056    -5.4888 F       
  35 F35            2.8757     7.4302    -6.0290 F       
  36 F36            3.1142     5.2453    -6.6523 F       
  37 O37            2.2564    -1.7091     2.4799 O.3     
  38 C38            2.8471    -2.3636     3.6045 C.3     
  39 H39           -0.9548     2.0675    -0.2488 H       
  40 H40           -1.0239    -0.3482     0.1389 H       
  41 H41            1.9520    -4.3011     2.6746 H       
  42 H42           -0.3397    -4.6990    -0.9130 H       
  43 H43           -0.1832    -2.2742    -1.2888 H       
  44 H44            6.7746     2.5661     1.0968 H       
  45 H45            4.6133     1.2523     1.9248 H       
  46 H46            2.8070     1.0117    -2.4996 H       
  47 H47            1.6955     1.6164    -4.6096 H       
  48 H48            1.9317     3.8888    -5.5218 H       
  49 H49            4.3949     4.9702    -2.2020 H       
  50 H50           -0.4753    -6.6816    -0.6043 H       
  51 H51            1.8224    -6.2858     2.9755 H       
  52 H52            2.0697    -2.8581     4.1868 H       
  53 H53            3.5672    -3.1044     3.2567 H       
  54 H54            3.3552    -1.6277     4.2276 H       
@<TRIPOS>BOND
   1    1    2 2
   2    1    6 1
   3    1   39 1
   4    2    3 1
   5    2   40 1
   6    3    4 1
   7    3    7 1
   8    4    5 2
   9    5    6 1
  10    5   13 1
  11    6   24 2
  12    7    8 ar
  13    7   12 ar
  14    8    9 ar
  15    8   37 1
  16    9   10 ar
  17    9   41 1
  18   10   11 ar
  19   10   25 1
  20   11   12 ar
  21   11   42 1
  22   12   43 1
  23   13   14 1
  24   13   17 2
  25   14   15 1
  26   14   18 1
  27   15   16 2
  28   16   17 1
  29   16   44 1
  30   17   45 1
  31   18   19 ar
  32   18   23 ar
  33   19   20 ar
  34   19   46 1
  35   20   21 ar
  36   20   47 1
  37   21   22 ar
  38   21   48 1
  39   22   23 ar
  40   22   32 1
  41   23   49 1
  42   25   26 1
  43   25   29 1
  44   26   27 2
  45   26   50 1
  46   27   28 1
  47   27   30 1
  48   28   29 2
  49   28   31 1
  50   29   51 1
  51   32   33 1
  52   33   34 1
  53   33   35 1
  54   33   36 1
  55   37   38 1
  56   38   52 1
  57   38   53 1
  58   38   54 1

#	End of record

