#	Name: ASD03730259
#	Creating user name:	WinNT
#	Creation time:	15. 06. 2019 20:44

#	Modifying user name:	WinNT
#	Modification time:	15. 06. 2019 20:44

#	Program:	/corina/corina34_cracker 3.40 0067  02.08.2006

@<TRIPOS>MOLECULE
ASD03730259
  61   66    0    0    0
SMALL
NO_CHARGES


@<TRIPOS>ATOM
   1 O1            -0.4717     1.1329     1.3513 O.3     
   2 C2            -0.4013    -0.3032     1.4272 C.3     
   3 O3             0.6738    -0.6414     0.5312 O.3     
   4 C4             1.4934     0.4510     0.5156 C.ar    
   5 C5             0.7880     1.5421     1.0183 C.ar    
   6 C6             2.8063     0.6047     0.1077 C.ar    
   7 C7             3.4305     1.8456     0.1935 C.ar    
   8 C8             2.7124     2.9305     0.6875 C.ar    
   9 C9             1.4052     2.7790     1.1009 C.ar    
  10 O10            4.7056     2.2041    -0.1320 O.3     
  11 C11            3.6351     4.1183     0.6275 C.3     
  12 C12            4.7730     3.6352    -0.2822 C.3     
  13 N13            3.0679     6.2981     1.0139 N.am    
  14 C14            2.9562     5.3382     0.0741 C.2     
  15 C15            4.1353     4.5226     1.9823 C.ar    
  16 C16            4.8355     3.8626     2.9827 C.ar    
  17 C17            5.1606     4.5345     4.1605 C.ar    
  18 C18            4.7828     5.8527     4.3228 C.ar    
  19 C19            4.0864     6.5084     3.3280 C.ar    
  20 C20            3.7552     5.8501     2.1450 C.ar    
  21 O21            2.4146     5.4400    -1.0063 O.2     
  22 C22            5.2375     2.4459     2.7991 C.ar    
  23 C23            4.7206     1.4593     3.6353 C.ar    
  24 C24            5.0992     0.1388     3.4585 C.ar    
  25 C25            5.9916    -0.1986     2.4500 C.ar    
  26 C26            6.5051     0.7802     1.6203 C.ar    
  27 C27            6.1286     2.0982     1.7859 C.ar    
  28 O28            4.5973    -0.8267     4.2728 O.3     
  29 C29            5.0311    -2.1671     4.0335 C.3     
  30 F30            6.4209    -2.2400     4.1763 F       
  31 F31            4.4220    -3.0257     4.9549 F       
  32 F32            4.6750    -2.5477     2.7353 F       
  33 C33            2.5312     7.6532     0.8665 C.3     
  34 C34            1.0988     7.6955     1.4026 C.3     
  35 C35            0.5382     9.1108     1.2487 C.3     
  36 C36           -0.8942     9.1531     1.7848 C.3     
  37 C37           -1.4547    10.5683     1.6309 C.3     
  38 H38           -0.1677    -0.6220     2.4430 H       
  39 H39           -1.3361    -0.7508     1.0897 H       
  40 H40            3.3506    -0.2440    -0.2795 H       
  41 H41            0.8615     3.6273     1.4898 H       
  42 H42            5.7338     4.0160     0.0641 H       
  43 H43            4.5908     3.9249    -1.3171 H       
  44 H44            5.7058     4.0263     4.9422 H       
  45 H45            5.0337     6.3741     5.2347 H       
  46 H46            3.7959     7.5393     3.4672 H       
  47 H47            4.0267     1.7233     4.4196 H       
  48 H48            6.2857    -1.2288     2.3137 H       
  49 H49            7.1996     0.5128     0.8377 H       
  50 H50            6.5278     2.8601     1.1328 H       
  51 H51            3.1503     8.3523     1.4287 H       
  52 H52            2.5332     7.9322    -0.1872 H       
  53 H53            0.4797     6.9964     0.8404 H       
  54 H54            1.0968     7.4165     2.4563 H       
  55 H55            1.1573     9.8099     1.8108 H       
  56 H56            0.5402     9.3898     0.1950 H       
  57 H57           -1.5133     8.4539     1.2226 H       
  58 H58           -0.8962     8.8741     2.8385 H       
  59 H59           -1.4527    10.8473     0.5772 H       
  60 H60           -2.4752    10.5985     2.0128 H       
  61 H61           -0.8356    11.2675     2.1930 H       
@<TRIPOS>BOND
   1    1    2 1
   2    1    5 1
   3    2    3 1
   4    2   38 1
   5    2   39 1
   6    3    4 1
   7    4    5 ar
   8    4    6 ar
   9    5    9 ar
  10    6    7 ar
  11    6   40 1
  12    7    8 ar
  13    7   10 1
  14    8    9 ar
  15    8   11 1
  16    9   41 1
  17   10   12 1
  18   11   12 1
  19   11   14 1
  20   11   15 1
  21   12   42 1
  22   12   43 1
  23   13   14 am
  24   13   20 1
  25   13   33 1
  26   14   21 2
  27   15   16 ar
  28   15   20 ar
  29   16   17 ar
  30   16   22 1
  31   17   18 ar
  32   17   44 1
  33   18   19 ar
  34   18   45 1
  35   19   20 ar
  36   19   46 1
  37   22   23 ar
  38   22   27 ar
  39   23   24 ar
  40   23   47 1
  41   24   25 ar
  42   24   28 1
  43   25   26 ar
  44   25   48 1
  45   26   27 ar
  46   26   49 1
  47   27   50 1
  48   28   29 1
  49   29   30 1
  50   29   31 1
  51   29   32 1
  52   33   34 1
  53   33   51 1
  54   33   52 1
  55   34   35 1
  56   34   53 1
  57   34   54 1
  58   35   36 1
  59   35   55 1
  60   35   56 1
  61   36   37 1
  62   36   57 1
  63   36   58 1
  64   37   59 1
  65   37   60 1
  66   37   61 1

#	End of record

