#	Name: ASD01911977
#	Creating user name:	WinNT
#	Creation time:	15. 06. 2019 19:58

#	Modifying user name:	WinNT
#	Modification time:	15. 06. 2019 19:58

#	Program:	/corina/corina34_cracker 3.40 0067  02.08.2006

@<TRIPOS>MOLECULE
ASD01911977
  38   40    0    0    0
SMALL
NO_CHARGES


@<TRIPOS>ATOM
   1 C1             0.7758     1.1506    -0.1308 C.ar    
   2 C2             0.5674    -0.2266    -0.1276 C.ar    
   3 C3             1.6759    -1.0614    -0.2489 C.ar    
   4 N4             2.8773    -0.5199    -0.3619 N.ar    
   5 C5             3.0326     0.7889    -0.3607 C.ar    
   6 N6             2.0096     1.6123    -0.2480 N.ar    
   7 N7            -0.7198    -0.7569    -0.0055 N.pl3   
   8 C8            -0.9080    -2.1427    -0.0044 C.ar    
   9 C9            -1.3082    -4.1878    -1.2010 C.ar    
  10 C10           -1.2823    -4.8902    -0.0106 C.ar    
  11 C11           -1.0745    -4.2209     1.1884 C.ar    
  12 C12           -0.8874    -2.8455     1.1914 C.ar    
  13 N13           -1.0490    -4.9334     2.3924 N.am    
  14 C14           -1.5522    -4.3801     3.5136 C.2     
  15 C15           -1.6198    -5.1713     4.7639 C.ar    
  16 O16           -1.9505    -3.2320     3.4987 O.2     
  17 C17           -2.1407    -4.5937     5.9185 C.ar    
  18 C18           -1.1218    -2.8178    -1.2024 C.ar    
  19 F19           -1.1477    -2.1341    -2.3674 F       
  20 C20           -1.8721     0.1388     0.1215 C.3     
  21 C21           -2.1983    -5.3457     7.0825 C.ar    
  22 C22           -1.7327    -6.6494     7.0513 C.ar    
  23 C23           -1.2254    -7.1626     5.8641 C.ar    
  24 N24           -1.1879    -6.4273     4.7723 N.ar    
  25 F25           -0.7694    -8.4338     5.8280 F       
  26 H26           -0.0581     1.8313    -0.0434 H       
  27 H27            1.5562    -2.1347    -0.2503 H       
  28 H28            4.0274     1.1987    -0.4543 H       
  29 H29           -1.4696    -4.7107    -2.1320 H       
  30 H30           -1.4285    -5.9602    -0.0126 H       
  31 H31           -0.7257    -2.3235     2.1229 H       
  32 H32           -0.6692    -5.8255     2.4201 H       
  33 H33           -2.4950    -3.5736     5.9081 H       
  34 H34           -2.2603     0.3741    -0.8695 H       
  35 H35           -2.6490    -0.3497     0.7095 H       
  36 H36           -1.5642     1.0586     0.6189 H       
  37 H37           -2.5970    -4.9237     7.9932 H       
  38 H38           -1.7634    -7.2610     7.9409 H       
@<TRIPOS>BOND
   1    1    2 ar
   2    1    6 ar
   3    1   26 1
   4    2    3 ar
   5    2    7 1
   6    3    4 ar
   7    3   27 1
   8    4    5 ar
   9    5    6 ar
  10    5   28 1
  11    7    8 1
  12    7   20 1
  13    8   18 ar
  14    8   12 ar
  15    9   10 ar
  16    9   18 ar
  17    9   29 1
  18   10   11 ar
  19   10   30 1
  20   11   12 ar
  21   11   13 1
  22   12   31 1
  23   13   14 am
  24   13   32 1
  25   14   15 1
  26   14   16 2
  27   15   17 ar
  28   15   24 ar
  29   17   21 ar
  30   17   33 1
  31   18   19 1
  32   20   34 1
  33   20   35 1
  34   20   36 1
  35   21   22 ar
  36   21   37 1
  37   22   23 ar
  38   22   38 1
  39   23   24 ar
  40   23   25 1

#	End of record

