#	Name: ASD01230844
#	Creating user name:	WinNT
#	Creation time:	15. 06. 2019 19:15

#	Modifying user name:	WinNT
#	Modification time:	15. 06. 2019 19:15

#	Program:	/corina/corina34_cracker 3.40 0067  02.08.2006

@<TRIPOS>MOLECULE
ASD01230844
  45   48    0    0    0
SMALL
NO_CHARGES


@<TRIPOS>ATOM
   1 C1             0.9971    -0.1179    -0.6746 C.3     
   2 C2             1.4225    -1.5087    -0.1960 C.3     
   3 C3             0.3045    -2.5237    -0.3881 C.3     
   4 C4            -1.0791    -1.8906    -0.3367 C.3     
   5 N5            -1.0811    -0.6808     0.4889 N.pl3   
   6 C6            -0.1830     0.3083     0.1819 C.2     
   7 C7            -1.9913    -0.5562     1.6245 C.3     
   8 C8            -2.7627     0.7603     1.5176 C.3     
   9 S9            -1.5894     2.1336     1.3720 S.o2    
  10 N10           -0.3069     1.5271     0.5354 N.am    
  11 C11            2.1349     0.8550    -0.5019 C.ar    
  12 O12           -2.1122     3.1443     0.5209 O.2     
  13 O13           -1.0495     2.4616     2.6449 O.2     
  14 C14            2.6526     1.5137    -1.6019 C.ar    
  15 C15            3.6956     2.4060    -1.4463 C.ar    
  16 C16            4.2235     2.6413    -0.1848 C.ar    
  17 C17            3.7018     1.9792     0.9174 C.ar    
  18 C18            2.6556     1.0915     0.7570 C.ar    
  19 O19            5.2498     3.5182    -0.0292 O.3     
  20 C20            5.6571     4.2231    -1.1171 C.ar    
  21 C21            5.0643     5.4410    -1.4174 C.ar    
  22 C22            5.4805     6.1570    -2.5255 C.ar    
  23 C23            6.4881     5.6583    -3.3344 C.ar    
  24 C24            7.0798     4.4441    -3.0358 C.ar    
  25 C25            6.6701     3.7284    -1.9256 C.ar    
  26 Cl26           8.3421     3.8213    -4.0518 Cl      
  27 F27            4.9036     7.3429    -2.8190 F       
  28 H28            0.7007    -0.1603    -1.7227 H       
  29 H29            2.2970    -1.8292    -0.7621 H       
  30 H30            1.6816    -1.4587     0.8616 H       
  31 H31            0.4332    -3.0102    -1.3549 H       
  32 H32            0.3756    -3.2781     0.3955 H       
  33 H33           -1.3911    -1.6325    -1.3487 H       
  34 H34           -1.7848    -2.6087     0.0809 H       
  35 H35           -2.6933    -1.3900     1.6207 H       
  36 H36           -1.4188    -0.5676     2.5520 H       
  37 H37           -3.4044     0.7353     0.6369 H       
  38 H38           -3.3739     0.8972     2.4097 H       
  39 H39            2.2414     1.3303    -2.5835 H       
  40 H40            4.1001     2.9198    -2.3059 H       
  41 H41            4.1108     2.1606     1.9003 H       
  42 H42            2.2490     0.5762     1.6146 H       
  43 H43            4.2784     5.8296    -0.7868 H       
  44 H44            6.8121     6.2179    -4.1994 H       
  45 H45            7.1325     2.7805    -1.6932 H       
@<TRIPOS>BOND
   1    1    2 1
   2    1   11 1
   3    1    6 1
   4    1   28 1
   5    2    3 1
   6    2   29 1
   7    2   30 1
   8    3    4 1
   9    3   31 1
  10    3   32 1
  11    4    5 1
  12    4   33 1
  13    4   34 1
  14    5    6 1
  15    5    7 1
  16    6   10 2
  17    7    8 1
  18    7   35 1
  19    7   36 1
  20    8    9 1
  21    8   37 1
  22    8   38 1
  23    9   10 am
  24    9   12 2
  25    9   13 2
  26   11   14 ar
  27   11   18 ar
  28   14   15 ar
  29   14   39 1
  30   15   16 ar
  31   15   40 1
  32   16   17 ar
  33   16   19 1
  34   17   18 ar
  35   17   41 1
  36   18   42 1
  37   19   20 1
  38   20   21 ar
  39   20   25 ar
  40   21   22 ar
  41   21   43 1
  42   22   23 ar
  43   22   27 1
  44   23   24 ar
  45   23   44 1
  46   24   25 ar
  47   24   26 1
  48   25   45 1

#	End of record

