#	Name: ASD07930107
#	Creating user name:	WinNT
#	Creation time:	15. 06. 2019 21:11

#	Modifying user name:	WinNT
#	Modification time:	15. 06. 2019 21:11

#	Program:	/corina/corina34_cracker 3.40 0067  02.08.2006

@<TRIPOS>MOLECULE
ASD07930107
  52   56    0    0    0
SMALL
NO_CHARGES


@<TRIPOS>ATOM
   1 C1            -0.0180     1.4742     0.0101 C.2     
   2 C2             0.0021    -0.0041     0.0020 C.2     
   3 N3             1.1825     2.1500     0.0023 N.am    
   4 N4             1.1184    -0.6405     0.4299 N.am    
   5 C5             2.2489     0.1638     0.9153 C.3     
   6 C6             2.4268     1.3684    -0.0208 C.3     
   7 C7            -1.2129     2.1510     0.0196 C.2     
   8 C8            -1.2393     3.5472     0.0297 C.2     
   9 C9            -0.0415     4.2492     0.0307 C.2     
  10 C10            1.2192     3.4937     0.0142 C.2     
  11 O11           -0.9641    -0.6356    -0.3806 O.2     
  12 O12            2.2876     4.0799     0.0116 O.2     
  13 O13            0.4242     6.5327    -0.9373 O.3     
  14 C14            0.2477     7.7980    -0.5336 C.2     
  15 N15           -0.2994     7.7961     0.6507 N.2     
  16 C16           -0.4893     6.5286     1.0404 C.2     
  17 C17           -0.0343     5.7211     0.0418 C.2     
  18 C18            0.6217     9.0269    -1.3215 C.3     
  19 C19            1.1976    -2.1033     0.4097 C.3     
  20 C20            1.7647    -2.5648    -0.9343 C.3     
  21 O21            3.1137    -2.1114    -1.0630 O.3     
  22 C22            3.7677    -2.4387    -2.2075 C.ar    
  23 C23            3.1376    -3.1699    -3.1747 C.ar    
  24 C24            3.7940    -3.5131    -4.3535 C.ar    
  25 C25            5.0816    -3.1309    -4.5774 C.ar    
  26 C26            5.7648    -2.3779    -3.6072 C.ar    
  27 C27            7.0944    -1.9675    -3.8061 C.ar    
  28 C28            7.7258    -1.2397    -2.8454 C.ar    
  29 C29            7.0724    -0.8929    -1.6620 C.ar    
  30 C30            5.7832    -1.2744    -1.4358 C.ar    
  31 C31            5.0992    -2.0215    -2.4081 C.ar    
  32 F32            7.7266    -0.1693    -0.7273 F       
  33 H33            2.0420     0.5133     1.9268 H       
  34 H34            3.1563    -0.4401     0.9117 H       
  35 H35            2.6246     1.0208    -1.0348 H       
  36 H36            3.2557     1.9852     0.3262 H       
  37 H37           -2.1407     1.5983     0.0188 H       
  38 H38           -2.1814     4.0752     0.0363 H       
  39 H39           -0.9235     6.2059     1.9751 H       
  40 H40           -0.2209     9.3307    -1.9427 H       
  41 H41            0.8771     9.8346    -0.6355 H       
  42 H42            1.4795     8.8045    -1.9562 H       
  43 H43            1.8489    -2.4430     1.2149 H       
  44 H44            0.2010    -2.5230     0.5469 H       
  45 H45            1.7409    -3.6534    -0.9841 H       
  46 H46            1.1635    -2.1509    -1.7438 H       
  47 H47            2.1163    -3.4864    -3.0225 H       
  48 H48            3.2737    -4.0920    -5.1022 H       
  49 H49            5.5762    -3.4059    -5.4972 H       
  50 H50            7.6125    -2.2291    -4.7169 H       
  51 H51            8.7475    -0.9261    -3.0007 H       
  52 H52            5.2892    -0.9997    -0.5155 H       
@<TRIPOS>BOND
   1    1    2 1
   2    1    3 1
   3    1    7 2
   4    2    4 am
   5    2   11 2
   6    3    6 1
   7    3   10 am
   8    4    5 1
   9    4   19 1
  10    5    6 1
  11    5   33 1
  12    5   34 1
  13    6   35 1
  14    6   36 1
  15    7    8 1
  16    7   37 1
  17    8    9 2
  18    8   38 1
  19    9   10 1
  20    9   17 1
  21   10   12 2
  22   13   14 1
  23   13   17 1
  24   14   15 2
  25   14   18 1
  26   15   16 1
  27   16   17 2
  28   16   39 1
  29   18   40 1
  30   18   41 1
  31   18   42 1
  32   19   20 1
  33   19   43 1
  34   19   44 1
  35   20   21 1
  36   20   45 1
  37   20   46 1
  38   21   22 1
  39   22   23 ar
  40   22   31 ar
  41   23   24 ar
  42   23   47 1
  43   24   25 ar
  44   24   48 1
  45   25   26 ar
  46   25   49 1
  47   26   27 ar
  48   26   31 ar
  49   27   28 ar
  50   27   50 1
  51   28   29 ar
  52   28   51 1
  53   29   30 ar
  54   29   32 1
  55   30   31 ar
  56   30   52 1

#	End of record

