#	Name: ASD05790080
#	Creating user name:	WinNT
#	Creation time:	15. 06. 2019 21:03

#	Modifying user name:	WinNT
#	Modification time:	15. 06. 2019 21:03

#	Program:	/corina/corina34_cracker 3.40 0067  02.08.2006

@<TRIPOS>MOLECULE
ASD05790080
 101  107    0    0    0
SMALL
NO_CHARGES


@<TRIPOS>ATOM
   1 C1             1.4976    -1.2803     0.8087 C.3     
   2 C2             1.6325    -2.8028     0.8817 C.3     
   3 C3             2.1279    -3.1981     2.2749 C.3     
   4 C4             3.4200    -2.4567     2.5646 C.2     
   5 C5             3.4394    -0.9604     2.3554 C.3     
   6 C6             2.8762    -0.6389     0.9678 C.3     
   7 C7             4.4455    -3.1511     2.9731 C.2     
   8 C8             5.7843    -2.5470     3.3274 C.3     
   9 C9             5.5202    -1.0986     3.7126 C.3     
  10 C10            4.8515    -0.4421     2.4718 C.3     
  11 C11            6.7696    -0.2271     3.8588 C.3     
  12 C12            6.2192     1.1845     3.6418 C.2     
  13 C13            5.0072     1.0551     2.7372 C.3     
  14 C14            2.5731    -0.2882     3.4223 C.3     
  15 C15            7.8327     2.2108     5.1812 C.3     
  16 C16            6.6973     2.2500     4.2048 C.2     
  17 O17            7.3834     2.7562     6.4504 O.3     
  18 C18            8.5142     3.4319     6.9781 C.3     
  19 C19            9.0469     4.2182     5.7454 C.3     
  20 C20            8.9725     3.1324     4.6698 C.3     
  21 C21            8.3206     4.4266     8.0992 C.3     
  22 C22            9.7130     4.9505     8.4917 C.3     
  23 C23           10.4354     5.5709     7.2978 C.3     
  24 N24           10.3770     4.6795     6.1196 N.am    
  25 C25            6.0854     3.5840     3.8623 C.3     
  26 C26           10.2926     2.3637     4.5849 C.3     
  27 C27            9.5590     6.0074     9.5871 C.3     
  28 C28            7.3133    -0.2620     5.2892 C.3     
  29 C29            8.3900     0.8164     5.4132 C.3     
  30 O30            0.3401    -3.4167     0.6342 O.3     
  31 C31           -0.6807    -6.6848    -0.8789 C.3     
  32 C32           -0.9620    -5.3291    -0.2277 C.3     
  33 C33            0.3417    -4.6298     0.0598 C.2     
  34 C34           -1.8020    -4.4719    -1.1767 C.3     
  35 C35           -1.7266    -5.5405     1.0805 C.3     
  36 O36            1.3883    -5.1613    -0.2267 O.2     
  37 C37           16.9524     5.3257     6.8603 C.ar    
  38 C38           17.3789     4.2414     7.6043 C.ar    
  39 C39           16.6574     3.0625     7.5841 C.ar    
  40 C40           15.5094     2.9678     6.8199 C.ar    
  41 C41           15.0829     4.0520     6.0759 C.ar    
  42 C42           15.8044     5.2309     6.0961 C.ar    
  43 C43           13.8314     3.9487     5.2428 C.3     
  44 O44           12.6857     4.3525     6.0382 O.3     
  45 C45           11.4814     4.3173     5.4373 C.2     
  46 O46           11.3902     3.9590     4.2798 O.2     
  47 H47            1.0749    -0.9987    -0.1557 H       
  48 H48            0.8417    -0.9348     1.6078 H       
  49 H49            2.3470    -3.1415     0.1314 H       
  50 H50            1.3781    -2.9295     3.0189 H       
  51 H51            2.3084    -4.2726     2.3070 H       
  52 H52            3.5484    -1.0302     0.2041 H       
  53 H53            2.7888     0.4416     0.8535 H       
  54 H54            4.3308    -4.2211     3.0639 H       
  55 H55            6.2245    -3.0825     4.1685 H       
  56 H56            6.4519    -2.5884     2.4667 H       
  57 H57            4.8774    -1.0365     4.5907 H       
  58 H58            5.4121    -0.7036     1.5743 H       
  59 H59            7.5284    -0.4841     3.1196 H       
  60 H60            5.1764     1.5881     1.8016 H       
  61 H61            4.1201     1.4433     3.2378 H       
  62 H62            3.0359    -0.4175     4.4006 H       
  63 H63            2.4835     0.7753     3.2005 H       
  64 H64            1.5826    -0.7433     3.4258 H       
  65 H65            9.2604     2.6987     7.2843 H       
  66 H66            8.3920     5.0542     5.5000 H       
  67 H67            8.7141     3.5646     3.7031 H       
  68 H68            7.6961     5.2525     7.7585 H       
  69 H69            7.8544     3.9362     8.9538 H       
  70 H70           10.3088     4.1234     8.8779 H       
  71 H71            9.9651     6.5225     7.0501 H       
  72 H72           11.4782     5.7464     7.5623 H       
  73 H73            6.6063     4.0137     3.0068 H       
  74 H74            5.0324     3.4481     3.6158 H       
  75 H75            6.1749     4.2549     4.7167 H       
  76 H76           10.9392     2.6598     5.4109 H       
  77 H77           10.0944     1.2935     4.6442 H       
  78 H78           10.7847     2.5902     3.6390 H       
  79 H79            9.0761     5.5617    10.4568 H       
  80 H80           10.5422     6.3832     9.8703 H       
  81 H81            8.9489     6.8304     9.2148 H       
  82 H82            6.5071    -0.0604     5.9945 H       
  83 H83            7.7470    -1.2407     5.4945 H       
  84 H84            9.1725     0.6214     4.6799 H       
  85 H85            8.8238     0.7703     6.4121 H       
  86 H86           -0.0823    -7.2954    -0.2028 H       
  87 H87           -1.6236    -7.1905    -1.0868 H       
  88 H88           -0.1360    -6.5341    -1.8109 H       
  89 H89           -2.7449    -4.9777    -1.3846 H       
  90 H90           -2.0023    -3.5062    -0.7128 H       
  91 H91           -1.2572    -4.3213    -2.1087 H       
  92 H92           -1.1282    -6.1512     1.7566 H       
  93 H93           -1.9270    -4.5747     1.5444 H       
  94 H94           -2.6695    -6.0463     0.8726 H       
  95 H95           17.5137     6.2482     6.8796 H       
  96 H96           18.2760     4.3153     8.2010 H       
  97 H97           16.9910     2.2152     8.1647 H       
  98 H98           14.9460     2.0465     6.8035 H       
  99 H99           15.4710     6.0781     5.5151 H       
 100 H100          13.9185     4.6010     4.3739 H       
 101 H101          13.6991     2.9186     4.9119 H       
@<TRIPOS>BOND
   1    1    2 1
   2    1    6 1
   3    1   47 1
   4    1   48 1
   5    2    3 1
   6    2   30 1
   7    2   49 1
   8    3    4 1
   9    3   50 1
  10    3   51 1
  11    4    5 1
  12    4    7 2
  13    5    6 1
  14    5   14 1
  15    5   10 1
  16    6   52 1
  17    6   53 1
  18    7    8 1
  19    7   54 1
  20    8    9 1
  21    8   55 1
  22    8   56 1
  23    9   10 1
  24    9   11 1
  25    9   57 1
  26   10   13 1
  27   10   58 1
  28   11   12 1
  29   11   28 1
  30   11   59 1
  31   12   13 1
  32   12   16 2
  33   13   60 1
  34   13   61 1
  35   14   62 1
  36   14   63 1
  37   14   64 1
  38   15   16 1
  39   15   17 1
  40   15   29 1
  41   15   20 1
  42   16   25 1
  43   17   18 1
  44   18   19 1
  45   18   21 1
  46   18   65 1
  47   19   20 1
  48   19   24 1
  49   19   66 1
  50   20   26 1
  51   20   67 1
  52   21   22 1
  53   21   68 1
  54   21   69 1
  55   22   23 1
  56   22   27 1
  57   22   70 1
  58   23   24 1
  59   23   71 1
  60   23   72 1
  61   24   45 am
  62   25   73 1
  63   25   74 1
  64   25   75 1
  65   26   76 1
  66   26   77 1
  67   26   78 1
  68   27   79 1
  69   27   80 1
  70   27   81 1
  71   28   29 1
  72   28   82 1
  73   28   83 1
  74   29   84 1
  75   29   85 1
  76   30   33 1
  77   31   32 1
  78   31   86 1
  79   31   87 1
  80   31   88 1
  81   32   33 1
  82   32   34 1
  83   32   35 1
  84   33   36 2
  85   34   89 1
  86   34   90 1
  87   34   91 1
  88   35   92 1
  89   35   93 1
  90   35   94 1
  91   37   38 ar
  92   37   42 ar
  93   37   95 1
  94   38   39 ar
  95   38   96 1
  96   39   40 ar
  97   39   97 1
  98   40   41 ar
  99   40   98 1
 100   41   42 ar
 101   41   43 1
 102   42   99 1
 103   43   44 1
 104   43  100 1
 105   43  101 1
 106   44   45 1
 107   45   46 2

#	End of record

