#	Name: ASD00660002
#	Creating user name:	WinNT
#	Creation time:	15. 06. 2019 18:36

#	Modifying user name:	WinNT
#	Modification time:	15. 06. 2019 18:36

#	Program:	/corina/corina34_cracker 3.40 0067  02.08.2006

@<TRIPOS>MOLECULE
ASD00660002
  59   61    0    0    0
SMALL
NO_CHARGES


@<TRIPOS>ATOM
   1 C1            -0.3404     1.5309    -0.5683 C.ar    
   2 C2            -0.2121     0.1484    -0.6090 C.ar    
   3 C3             1.0298    -0.4447    -0.6167 C.ar    
   4 C4             2.1777     0.3519    -0.5834 C.ar    
   5 C5             2.0433     1.7587    -0.5420 C.ar    
   6 C6             0.7754     2.3379    -0.5349 C.ar    
   7 N7             3.4172    -0.1924    -0.5892 N.2     
   8 C8             4.4935     0.5539    -0.5575 C.2     
   9 N9             4.4522     1.9204    -0.5166 N.am    
  10 C10            3.2663     2.5718    -0.5071 C.2     
  11 C11            5.6469     2.6512    -0.4844 C.ar    
  12 C12            6.4805     2.5731     0.6233 C.ar    
  13 C13            7.6580     3.2945     0.6518 C.ar    
  14 C14            8.0070     4.0939    -0.4212 C.ar    
  15 C15            7.1786     4.1741    -1.5256 C.ar    
  16 C16            6.0026     3.4507    -1.5625 C.ar    
  17 O17            3.2146     3.7875    -0.4712 O.2     
  18 S18            6.0668    -0.2393    -0.5674 S.3     
  19 C19            5.5475    -1.9690    -0.4466 C.3     
  20 C20            6.7523    -2.8811    -0.6857 C.3     
  21 C21            7.2469    -2.7065    -2.1230 C.3     
  22 C22            8.4518    -3.6186    -2.3621 C.3     
  23 C23            8.9464    -3.4440    -3.7994 C.3     
  24 C24            4.9848    -2.2298     0.9269 C.2     
  25 N25            3.7772    -2.8131     1.0608 N.am    
  26 O26            5.6186    -1.9146     1.9118 O.2     
  27 C27            3.1837    -2.9715     2.3908 C.3     
  28 C28            2.3404    -1.7389     2.7230 C.3     
  29 C29            3.5572    -4.6864    -0.4961 C.3     
  30 C30            3.0581    -3.2889    -0.1236 C.3     
  31 H31           -1.3238     1.9772    -0.5674 H       
  32 H32           -1.0980    -0.4688    -0.6345 H       
  33 H33            1.1169    -1.5207    -0.6481 H       
  34 H34            0.6687     3.4122    -0.5030 H       
  35 H35            6.2084     1.9492     1.4617 H       
  36 H36            8.3067     3.2344     1.5132 H       
  37 H37            8.9282     4.6570    -0.3965 H       
  38 H38            7.4535     4.7998    -2.3618 H       
  39 H39            5.3561     3.5137    -2.4253 H       
  40 H40            4.7833    -2.1722    -1.1969 H       
  41 H41            7.5508    -2.6177     0.0079 H       
  42 H42            6.4598    -3.9189    -0.5257 H       
  43 H43            6.4484    -2.9700    -2.8165 H       
  44 H44            7.5394    -1.6687    -2.2830 H       
  45 H45            9.2503    -3.3552    -1.6685 H       
  46 H46            8.1593    -4.6564    -2.2021 H       
  47 H47            9.8047    -4.0938    -3.9698 H       
  48 H48            8.1478    -3.7075    -4.4930 H       
  49 H49            9.2389    -2.4062    -3.9594 H       
  50 H50            2.5506    -3.8588     2.4028 H       
  51 H51            3.9758    -3.0802     3.1316 H       
  52 H52            1.5482    -1.6301     1.9822 H       
  53 H53            1.8988    -1.8567     3.7126 H       
  54 H54            2.9734    -0.8516     2.7110 H       
  55 H55            4.6250    -4.6455    -0.7113 H       
  56 H56            3.3801    -5.3690     0.3350 H       
  57 H57            3.0222    -5.0403    -1.3773 H       
  58 H58            1.9904    -3.3298     0.0917 H       
  59 H59            3.2353    -2.6063    -0.9547 H       
@<TRIPOS>BOND
   1    1    2 ar
   2    1    6 ar
   3    1   31 1
   4    2    3 ar
   5    2   32 1
   6    3    4 ar
   7    3   33 1
   8    4    5 ar
   9    4    7 1
  10    5    6 ar
  11    5   10 1
  12    6   34 1
  13    7    8 2
  14    8    9 1
  15    8   18 1
  16    9   10 am
  17    9   11 1
  18   10   17 2
  19   11   12 ar
  20   11   16 ar
  21   12   13 ar
  22   12   35 1
  23   13   14 ar
  24   13   36 1
  25   14   15 ar
  26   14   37 1
  27   15   16 ar
  28   15   38 1
  29   16   39 1
  30   18   19 1
  31   19   20 1
  32   19   24 1
  33   19   40 1
  34   20   21 1
  35   20   41 1
  36   20   42 1
  37   21   22 1
  38   21   43 1
  39   21   44 1
  40   22   23 1
  41   22   45 1
  42   22   46 1
  43   23   47 1
  44   23   48 1
  45   23   49 1
  46   24   25 am
  47   24   26 2
  48   25   27 1
  49   25   30 1
  50   27   28 1
  51   27   50 1
  52   27   51 1
  53   28   52 1
  54   28   53 1
  55   28   54 1
  56   29   30 1
  57   29   55 1
  58   29   56 1
  59   29   57 1
  60   30   58 1
  61   30   59 1

#	End of record

