#	Name: ASD08170813
#	Creating user name:	WinNT
#	Creation time:	15. 06. 2019 21:18

#	Modifying user name:	WinNT
#	Modification time:	15. 06. 2019 21:18

#	Program:	/corina/corina34_cracker 3.40 0067  02.08.2006

@<TRIPOS>MOLECULE
ASD08170813
  68   73    0    0    0
SMALL
NO_CHARGES


@<TRIPOS>ATOM
   1 C1            -0.0162     1.3436     0.0094 C.2     
   2 N2             0.0021    -0.0041     0.0020 N.am    
   3 C3             1.2158    -0.6830    -0.0132 C.2     
   4 S4             1.4076    -2.3853    -0.0242 S.3     
   5 C5             3.1580    -2.1679    -0.0404 C.2     
   6 C6             4.1900    -3.2660    -0.0570 C.3     
   7 C7             5.9649    -5.1406     2.7999 C.3     
   8 C8             6.9968    -6.2387     2.7833 C.2     
   9 S9             6.6713    -7.9723     2.7767 S.3     
  10 C10            8.3583    -8.2694     2.7582 C.2     
  11 N11            2.3916    -0.1314    -0.0272 N.2     
  12 N12            3.3971    -0.8949    -0.0360 N.2     
  13 N13            8.2821    -6.0790     2.7658 N.2     
  14 N14            8.9817    -7.1299     2.7585 N.2     
  15 O15            1.0258     1.9642     0.0028 O.2     
  16 C16           -1.3314     2.0792     0.0197 C.3     
  17 N17            8.9606    -9.5229     2.7455 N.am    
  18 C18           10.3044    -9.6248     2.7315 C.2     
  19 C19           10.9570   -10.9831     2.7177 C.3     
  20 O20           10.9885    -8.6233     2.7299 O.2     
  21 C21            4.5536    -3.6458     1.3798 C.3     
  22 C22            5.6013    -4.7607     1.3631 C.3     
  23 C23           10.5605   -11.7437     1.4705 C.ar    
  24 C24           -1.0921     3.6040     0.0268 C.3     
  25 C25           12.4914   -10.8392     2.6324 C.3     
  26 C26           12.8907   -12.0552     1.7698 C.3     
  27 C27           11.6715   -12.3597     0.9259 C.ar    
  28 C28           11.5445   -13.1159    -0.2275 C.ar    
  29 C29           10.3120   -13.2558    -0.8346 C.ar    
  30 C30            9.2007   -12.6397    -0.2898 C.ar    
  31 C31            9.3252   -11.8858     0.8606 C.ar    
  32 O32           14.0026   -11.7270     0.9344 O.3     
  33 C33           -2.0969     1.8044    -1.2569 C.ar    
  34 C34           -1.9725     2.8792    -2.1170 C.ar    
  35 C35           -1.1149     3.9499    -1.4772 C.3     
  36 C36           -2.8433     0.7010    -1.6359 C.ar    
  37 C37           -3.4630     0.6717    -2.8697 C.ar    
  38 C38           -3.3385     1.7467    -3.7301 C.ar    
  39 C39           -2.5944     2.8477    -3.3541 C.ar    
  40 O40           -1.6971     5.2389    -1.6808 O.3     
  41 H41           -0.8313    -0.5005     0.0073 H       
  42 H42            3.7851    -4.1373    -0.5717 H       
  43 H43            5.0822    -2.9183    -0.5777 H       
  44 H44            5.0727    -5.4882     3.3206 H       
  45 H45            6.3698    -4.2692     3.3146 H       
  46 H46           -1.9219     1.7850     0.8873 H       
  47 H47            8.4135   -10.3239     2.7467 H       
  48 H48           10.6774   -11.5454     3.6085 H       
  49 H49            4.9585    -2.7745     1.8946 H       
  50 H50            3.6614    -3.9935     1.9006 H       
  51 H51            6.4935    -4.4131     0.8423 H       
  52 H52            5.1964    -5.6320     0.8483 H       
  53 H53           -1.8940     4.1196     0.5552 H       
  54 H54           -0.1226     3.8420     0.4645 H       
  55 H55           12.7663    -9.9070     2.1388 H       
  56 H56           12.9421   -10.9020     3.6228 H       
  57 H57           13.1327   -12.9068     2.4057 H       
  58 H58           12.4122   -13.5975    -0.6536 H       
  59 H59           10.2164   -13.8457    -1.7342 H       
  60 H60            8.2361   -12.7481    -0.7632 H       
  61 H61            8.4566   -11.4051     1.2857 H       
  62 H62           14.2980   -12.4538     0.3692 H       
  63 H63           -0.1053     3.9210    -1.8873 H       
  64 H64           -2.9407    -0.1393    -0.9645 H       
  65 H65           -4.0440    -0.1904    -3.1624 H       
  66 H66           -3.8228     1.7256    -4.6952 H       
  67 H67           -2.4979     3.6873    -4.0265 H       
  68 H68           -1.7772     5.4919    -2.6107 H       
@<TRIPOS>BOND
   1    1    2 am
   2    1   15 2
   3    1   16 1
   4    2    3 1
   5    2   41 1
   6    3    4 1
   7    3   11 2
   8    4    5 1
   9    5    6 1
  10    5   12 2
  11    6   21 1
  12    6   42 1
  13    6   43 1
  14    7    8 1
  15    7   22 1
  16    7   44 1
  17    7   45 1
  18    8    9 1
  19    8   13 2
  20    9   10 1
  21   10   17 1
  22   10   14 2
  23   11   12 1
  24   13   14 1
  25   16   24 1
  26   16   33 1
  27   16   46 1
  28   17   18 am
  29   17   47 1
  30   18   19 1
  31   18   20 2
  32   19   23 1
  33   19   25 1
  34   19   48 1
  35   21   22 1
  36   21   49 1
  37   21   50 1
  38   22   51 1
  39   22   52 1
  40   23   27 ar
  41   23   31 ar
  42   24   35 1
  43   24   53 1
  44   24   54 1
  45   25   26 1
  46   25   55 1
  47   25   56 1
  48   26   27 1
  49   26   32 1
  50   26   57 1
  51   27   28 ar
  52   28   29 ar
  53   28   58 1
  54   29   30 ar
  55   29   59 1
  56   30   31 ar
  57   30   60 1
  58   31   61 1
  59   32   62 1
  60   33   34 ar
  61   33   36 ar
  62   34   35 1
  63   34   39 ar
  64   35   40 1
  65   35   63 1
  66   36   37 ar
  67   36   64 1
  68   37   38 ar
  69   37   65 1
  70   38   39 ar
  71   38   66 1
  72   39   67 1
  73   40   68 1

#	End of record

