#	Name: ASD01230171
#	Creating user name:	WinNT
#	Creation time:	15. 06. 2019 19:11

#	Modifying user name:	WinNT
#	Modification time:	15. 06. 2019 19:11

#	Program:	/corina/corina34_cracker 3.40 0067  02.08.2006

@<TRIPOS>MOLECULE
ASD01230171
  38   40    0    0    0
SMALL
NO_CHARGES


@<TRIPOS>ATOM
   1 S1             3.5962    -5.0364     1.0881 S.o2    
   2 N2             2.2671    -4.0793     0.8532 N.am    
   3 C3             2.3445    -2.9039     0.2842 C.2     
   4 N4             3.4906    -2.3192    -0.1798 N.pl3   
   5 C5             4.8239    -2.9116    -0.0432 C.3     
   6 C6             4.7528    -4.4348    -0.1829 C.3     
   7 C7             1.0677    -2.1674     0.1427 C.2     
   8 C8             1.0708    -0.9316    -0.4864 C.2     
   9 C9             2.2786    -0.4205    -0.9639 C.2     
  10 C10            3.4291    -1.1063    -0.8087 C.2     
  11 C11           -0.1827    -2.7372     0.6603 C.2     
  12 O12           -0.1938    -3.8643     1.1192 O.2     
  13 N13           -1.3183    -2.0120     0.6271 N.am    
  14 C14           -2.5315    -2.5926     1.0171 C.ar    
  15 C15           -3.5034    -1.8197     1.6387 C.ar    
  16 C16           -4.6994    -2.3929     2.0230 C.ar    
  17 C17           -4.9300    -3.7406     1.7886 C.ar    
  18 C18           -3.9596    -4.5133     1.1677 C.ar    
  19 C19           -2.7655    -3.9402     0.7773 C.ar    
  20 O20           -6.1077    -4.3045     2.1681 O.3     
  21 C21           -6.2777    -5.6970     1.8959 C.3     
  22 F22           -5.2821    -6.4260     2.5551 F       
  23 F23           -7.5353    -6.1105     2.3482 F       
  24 F24           -6.1821    -5.9178     0.5177 F       
  25 O25            4.0557    -4.6972     2.3893 O.2     
  26 O26            3.1494    -6.3502     0.7821 O.2     
  27 H27            5.4769    -2.5096    -0.8178 H       
  28 H28            5.2308    -2.6590     0.9359 H       
  29 H29            5.7396    -4.8690    -0.0226 H       
  30 H30            4.3859    -4.7000    -1.1744 H       
  31 H31            0.1535    -0.3739    -0.6052 H       
  32 H32            2.2918     0.5365    -1.4644 H       
  33 H33            4.3417    -0.6789    -1.1973 H       
  34 H34           -1.2952    -1.0879     0.3331 H       
  35 H35           -3.3237    -0.7706     1.8218 H       
  36 H36           -5.4554    -1.7919     2.5064 H       
  37 H37           -4.1397    -5.5626     0.9860 H       
  38 H38           -2.0120    -4.5408     0.2896 H       
@<TRIPOS>BOND
   1    1    2 am
   2    1    6 1
   3    1   25 2
   4    1   26 2
   5    2    3 2
   6    3    4 1
   7    3    7 1
   8    4    5 1
   9    4   10 1
  10    5    6 1
  11    5   27 1
  12    5   28 1
  13    6   29 1
  14    6   30 1
  15    7    8 2
  16    7   11 1
  17    8    9 1
  18    8   31 1
  19    9   10 2
  20    9   32 1
  21   10   33 1
  22   11   12 2
  23   11   13 am
  24   13   14 1
  25   13   34 1
  26   14   15 ar
  27   14   19 ar
  28   15   16 ar
  29   15   35 1
  30   16   17 ar
  31   16   36 1
  32   17   18 ar
  33   17   20 1
  34   18   19 ar
  35   18   37 1
  36   19   38 1
  37   20   21 1
  38   21   22 1
  39   21   23 1
  40   21   24 1

#	End of record

