#	Name: ASD03910068
#	Creating user name:	WinNT
#	Creation time:	15. 06. 2019 20:47

#	Modifying user name:	WinNT
#	Modification time:	15. 06. 2019 20:47

#	Program:	/corina/corina34_cracker 3.40 0067  02.08.2006

@<TRIPOS>MOLECULE
ASD03910068
  76   79    0    0    0
SMALL
NO_CHARGES


@<TRIPOS>ATOM
   1 C1            -0.4974    15.9303    -6.1553 C.ar    
   2 C2             0.5692    16.7554    -6.4614 C.ar    
   3 C3             1.8604    16.3610    -6.1619 C.ar    
   4 C4             2.0884    15.1409    -5.5563 C.ar    
   5 C5             1.0194    14.3100    -5.2476 C.ar    
   6 C6            -0.2766    14.7117    -5.5441 C.ar    
   7 N7             1.2470    13.0732    -4.6340 N.am    
   8 C8             0.3553    12.5859    -3.7487 C.2     
   9 O9            -0.5970    13.2586    -3.4144 O.2     
  10 C10           -0.5833    10.9033    -2.2177 C.ar    
  11 C11           -1.7403    10.3039    -2.6800 C.ar    
  12 C12           -2.7705    10.0209    -1.8043 C.ar    
  13 C13           -2.6435    10.3388    -0.4598 C.ar    
  14 C14           -1.4816    10.9402     0.0016 C.ar    
  15 C15           -0.4543    11.2211    -0.8782 C.ar    
  16 O16           -3.6557    10.0618     0.4036 O.3     
  17 C17           -3.4390    10.3781     1.7802 C.3     
  18 C18           -2.2762     9.5828     2.3154 C.2     
  19 C19           -1.9029    16.3641    -6.4834 C.3     
  20 C20            3.0199    17.2633    -6.4973 C.3     
  21 O21           -1.5159    10.0843     3.1162 O.2     
  22 N22           -2.0811     8.3143     1.9040 N.am    
  23 C23            0.5414    11.2052    -3.1742 C.3     
  24 C24           -0.8947     7.5759     2.3437 C.3     
  25 C25            0.2625     7.8962     1.4329 C.2     
  26 O26            0.1115     8.6627     0.5111 O.2     
  27 O27            1.4608     7.3301     1.6457 O.3     
  28 C28           -1.1816     6.0738     2.2947 C.3     
  29 C29           -3.1649    11.8840     1.9382 C.3     
  30 C30           -4.2793    12.4418     2.8475 C.3     
  31 C31           -4.7671    11.2099     3.6498 C.3     
  32 C32           -4.7100    10.0722     2.5992 C.3     
  33 S33           -2.5744     5.6883     3.3910 S.3     
  34 C34           -2.7595     3.8939     3.2000 C.3     
  35 C35           -3.8969     3.4115     4.0629 C.ar    
  36 C36           -5.1806     3.3654     3.5521 C.ar    
  37 C37           -6.2240     2.9229     4.3436 C.ar    
  38 C38           -5.9836     2.5262     5.6458 C.ar    
  39 C39           -4.6997     2.5714     6.1563 C.ar    
  40 C40           -3.6557     3.0098     5.3634 C.ar    
  41 H41            0.3936    17.7096    -6.9356 H       
  42 H42            3.0971    14.8332    -5.3233 H       
  43 H43           -1.1101    14.0679    -5.3049 H       
  44 H44            2.0466    12.5666    -4.8459 H       
  45 H45           -1.8389    10.0570    -3.7268 H       
  46 H46           -3.6742     9.5530    -2.1659 H       
  47 H47           -1.3804    11.1889     1.0477 H       
  48 H48            0.4504    11.6893    -0.5195 H       
  49 H49           -2.1632    16.0245    -7.4859 H       
  50 H50           -2.5949    15.9300    -5.7617 H       
  51 H51           -1.9671    17.4513    -6.4399 H       
  52 H52            3.2209    17.9249    -5.6547 H       
  53 H53            3.9031    16.6587    -6.7032 H       
  54 H54            2.7743    17.8590    -7.3765 H       
  55 H55           -2.7263     7.8902     1.3169 H       
  56 H56            0.5387    10.4725    -3.9811 H       
  57 H57            1.4923    11.1577    -2.6435 H       
  58 H58           -0.6444     7.8649     3.3644 H       
  59 H59            2.1725     7.5662     1.0352 H       
  60 H60           -1.4318     5.7848     1.2740 H       
  61 H61           -0.2988     5.5245     2.6218 H       
  62 H62           -2.1912    12.0396     2.4027 H       
  63 H63           -3.1972    12.3735     0.9649 H       
  64 H64           -3.8791    13.2008     3.5197 H       
  65 H65           -5.0915    12.8523     2.2475 H       
  66 H66           -4.0952    11.0003     4.4821 H       
  67 H67           -5.7873    11.3585     4.0034 H       
  68 H68           -5.5916    10.0997     1.9588 H       
  69 H69           -4.6244     9.1031     3.0907 H       
  70 H70           -2.9703     3.6594     2.1566 H       
  71 H71           -1.8373     3.3990     3.5044 H       
  72 H72           -5.3685     3.6753     2.5347 H       
  73 H73           -7.2270     2.8875     3.9448 H       
  74 H74           -6.7988     2.1812     6.2645 H       
  75 H75           -4.5119     2.2618     7.1738 H       
  76 H76           -2.6526     3.0451     5.7622 H       
@<TRIPOS>BOND
   1    1    2 ar
   2    1   19 1
   3    1    6 ar
   4    2    3 ar
   5    2   41 1
   6    3    4 ar
   7    3   20 1
   8    4    5 ar
   9    4   42 1
  10    5    6 ar
  11    5    7 1
  12    6   43 1
  13    7    8 am
  14    7   44 1
  15    8    9 2
  16    8   23 1
  17   10   11 ar
  18   10   15 ar
  19   10   23 1
  20   11   12 ar
  21   11   45 1
  22   12   13 ar
  23   12   46 1
  24   13   14 ar
  25   13   16 1
  26   14   15 ar
  27   14   47 1
  28   15   48 1
  29   16   17 1
  30   17   18 1
  31   17   29 1
  32   17   32 1
  33   18   21 2
  34   18   22 am
  35   19   49 1
  36   19   50 1
  37   19   51 1
  38   20   52 1
  39   20   53 1
  40   20   54 1
  41   22   24 1
  42   22   55 1
  43   23   56 1
  44   23   57 1
  45   24   25 1
  46   24   28 1
  47   24   58 1
  48   25   26 2
  49   25   27 1
  50   27   59 1
  51   28   33 1
  52   28   60 1
  53   28   61 1
  54   29   30 1
  55   29   62 1
  56   29   63 1
  57   30   31 1
  58   30   64 1
  59   30   65 1
  60   31   32 1
  61   31   66 1
  62   31   67 1
  63   32   68 1
  64   32   69 1
  65   33   34 1
  66   34   35 1
  67   34   70 1
  68   34   71 1
  69   35   36 ar
  70   35   40 ar
  71   36   37 ar
  72   36   72 1
  73   37   38 ar
  74   37   73 1
  75   38   39 ar
  76   38   74 1
  77   39   40 ar
  78   39   75 1
  79   40   76 1

#	End of record

