#	Name: ASD02198830
#	Creating user name:	WinNT
#	Creation time:	15. 06. 2019 20:20

#	Modifying user name:	WinNT
#	Modification time:	15. 06. 2019 20:20

#	Program:	/corina/corina34_cracker 3.40 0067  02.08.2006

@<TRIPOS>MOLECULE
ASD02198830
  45   49    0    0    0
SMALL
NO_CHARGES


@<TRIPOS>ATOM
   1 Br1            2.5207    -1.3999     2.8209 Br      
   2 C2            -0.0433     1.5018    -0.1149 C.2     
   3 C3            -0.0731     0.1621     0.0975 C.2     
   4 N4             1.0713    -0.5395     0.2602 N.pl3   
   5 N5             2.2358    -0.0048     0.2266 N.2     
   6 C6             2.4075     1.2844     0.0281 C.2     
   7 C7             1.2217     2.1357    -0.1604 C.2     
   8 C8             0.9797    -1.9184     0.4766 C.ar    
   9 C9             1.5796    -2.4883     1.5939 C.ar    
  10 C10            1.4883    -3.8496     1.8070 C.ar    
  11 C11            0.7975    -4.6486     0.9055 C.ar    
  12 C12            0.1981    -4.0790    -0.2108 C.ar    
  13 C13            0.2842    -2.7183    -0.4220 C.ar    
  14 C14            3.7645     1.8666    -0.0040 C.2     
  15 N15            4.3069     2.6064    -1.0171 N.pl3   
  16 N16            5.6088     2.9576    -0.6390 N.2     
  17 C17            5.8522     2.4582     0.5465 C.2     
  18 C18            4.7197     1.7713     0.9841 C.2     
  19 C19            3.6743     2.9510    -2.2183 C.ar    
  20 C20            3.8086     4.2341    -2.7322 C.ar    
  21 C21            3.1836     4.5708    -3.9169 C.ar    
  22 C22            2.4247     3.6318    -4.5912 C.ar    
  23 C23            2.2887     2.3534    -4.0818 C.ar    
  24 C24            2.9163     2.0087    -2.9008 C.ar    
  25 O25            1.3248     3.3387    -0.3486 O.2     
  26 N26            0.7053    -6.0304     1.1218 N.pl3   
  27 N27            1.2582    -6.7350     2.1990 N.2     
  28 C28            0.9610    -8.0015     2.0553 C.2     
  29 C29            0.2101    -8.1450     0.8834 C.2     
  30 C30            0.0620    -6.9186     0.3307 C.2     
  31 H31           -0.9546     2.0655    -0.2494 H       
  32 H32           -1.0229    -0.3503     0.1374 H       
  33 H33            1.9544    -4.2928     2.6746 H       
  34 H34           -0.3387    -4.7011    -0.9117 H       
  35 H35           -0.1819    -2.2760    -1.2900 H       
  36 H36            6.7755     2.5643     1.0966 H       
  37 H37            4.6136     1.2519     1.9250 H       
  38 H38            4.4008     4.9680    -2.2059 H       
  39 H39            3.2873     5.5686    -4.3169 H       
  40 H40            1.9369     3.8975    -5.5174 H       
  41 H41            1.6948     1.6225    -4.6104 H       
  42 H42            2.8097     1.0101    -2.5035 H       
  43 H43            1.2465    -8.7987     2.7256 H       
  44 H44           -0.1848    -9.0705     0.4911 H       
  45 H45           -0.4691    -6.6910    -0.5817 H       
@<TRIPOS>BOND
   1    1    9 1
   2    2    3 2
   3    2    7 1
   4    2   31 1
   5    3    4 1
   6    3   32 1
   7    4    5 1
   8    4    8 1
   9    5    6 2
  10    6    7 1
  11    6   14 1
  12    7   25 2
  13    8    9 ar
  14    8   13 ar
  15    9   10 ar
  16   10   11 ar
  17   10   33 1
  18   11   12 ar
  19   11   26 1
  20   12   13 ar
  21   12   34 1
  22   13   35 1
  23   14   15 1
  24   14   18 2
  25   15   16 1
  26   15   19 1
  27   16   17 2
  28   17   18 1
  29   17   36 1
  30   18   37 1
  31   19   20 ar
  32   19   24 ar
  33   20   21 ar
  34   20   38 1
  35   21   22 ar
  36   21   39 1
  37   22   23 ar
  38   22   40 1
  39   23   24 ar
  40   23   41 1
  41   24   42 1
  42   26   27 1
  43   26   30 1
  44   27   28 2
  45   28   29 1
  46   28   43 1
  47   29   30 2
  48   29   44 1
  49   30   45 1

#	End of record

