#	Name: ASD01811265
#	Creating user name:	WinNT
#	Creation time:	15. 06. 2019 19:26

#	Modifying user name:	WinNT
#	Modification time:	15. 06. 2019 19:26

#	Program:	/corina/corina34_cracker 3.40 0067  02.08.2006

@<TRIPOS>MOLECULE
ASD01811265
  71   75    0    0    0
SMALL
NO_CHARGES


@<TRIPOS>ATOM
   1 O1            -7.1853    -8.6432     0.8705 O.3     
   2 C2            -5.9224    -8.1418     0.8939 C.ar    
   3 C3            -5.7043    -6.8258     1.2752 C.ar    
   4 C4            -4.4196    -6.3184     1.2982 C.ar    
   5 C5            -3.3517    -7.1210     0.9416 C.ar    
   6 C6            -3.5665    -8.4327     0.5608 C.ar    
   7 C7            -4.8486    -8.9466     0.5421 C.ar    
   8 C8            -7.3348   -10.0061     0.4678 C.3     
   9 N9             0.8517    -6.7302     0.6265 N.am    
  10 C10            0.3154    -6.7888     1.9932 C.3     
  11 C11           -1.0978    -7.3782     1.9434 C.3     
  12 C12           -1.9513    -6.5649     0.9676 C.3     
  13 C13           -1.3440    -6.6471    -0.4348 C.3     
  14 C14            0.0664    -6.0494    -0.4120 C.3     
  15 C15            2.0440    -7.2854     0.3324 C.2     
  16 C16            2.8800    -7.8559     1.4104 C.ar    
  17 C17            3.0059    -7.1838     2.6286 C.ar    
  18 C18            3.7861    -7.7149     3.6362 C.ar    
  19 C19            4.4473    -8.9125     3.4474 C.ar    
  20 C20            4.3301    -9.5948     2.2343 C.ar    
  21 C21            3.5392    -9.0673     1.2155 C.ar    
  22 O22            2.4321    -7.3173    -0.8191 O.2     
  23 C23            5.2976    -9.4842     4.5526 C.3     
  24 C24            5.0386   -10.8768     2.0339 C.2     
  25 N25            5.0340   -11.4670     0.8223 N.am    
  26 O26            5.6253   -11.3986     2.9621 O.2     
  27 C27            5.6142   -12.7316     0.6569 C.ar    
  28 C28            6.1821   -13.0898    -0.5560 C.ar    
  29 N29            6.7304   -14.2790    -0.7195 N.ar    
  30 C30            6.7608   -15.1709     0.2578 C.ar    
  31 C31            6.2103   -14.8814     1.5022 C.ar    
  32 C32            5.6324   -13.6431     1.7118 C.ar    
  33 N33            7.3499   -16.4130     0.0380 N.3     
  34 C34            7.8684   -16.5157    -1.3384 C.3     
  35 C35            9.3714   -16.8502    -1.2371 C.3     
  36 C36            9.4953   -17.4775     0.1764 C.3     
  37 C37            8.4658   -16.6443     0.9798 C.3     
  38 H38           -6.5382    -6.1984     1.5534 H       
  39 H39           -4.2494    -5.2940     1.5945 H       
  40 H40           -2.7307    -9.0573     0.2821 H       
  41 H41           -5.0154    -9.9727     0.2493 H       
  42 H42           -6.9517   -10.1298    -0.5452 H       
  43 H43           -6.7769   -10.6493     1.1482 H       
  44 H44           -8.3899   -10.2788     0.4930 H       
  45 H45            0.9538    -7.4219     2.6094 H       
  46 H46            0.2777    -5.7842     2.4143 H       
  47 H47           -1.0483    -8.4140     1.6074 H       
  48 H48           -1.5437    -7.3384     2.9372 H       
  49 H49           -1.9797    -5.5242     1.2903 H       
  50 H50           -1.2922    -7.6897    -0.7483 H       
  51 H51           -1.9652    -6.0869    -1.1336 H       
  52 H52            0.0083    -4.9845    -0.1869 H       
  53 H53            0.5405    -6.1946    -1.3826 H       
  54 H54            2.4920    -6.2464     2.7825 H       
  55 H55            3.8800    -7.1913     4.5761 H       
  56 H56            3.4417    -9.5931     0.2771 H       
  57 H57            4.7275   -10.2368     5.0973 H       
  58 H58            6.1891    -9.9428     4.1248 H       
  59 H59            5.5911    -8.6865     5.2349 H       
  60 H60            4.6291   -11.0163     0.0648 H       
  61 H61            6.1755   -12.3877    -1.3767 H       
  62 H62            6.2381   -15.6132     2.2960 H       
  63 H63            5.1974   -13.3909     2.6676 H       
  64 H64            7.3470   -17.3099    -1.8728 H       
  65 H65            7.7339   -15.5665    -1.8571 H       
  66 H66            9.6589   -17.5691    -2.0043 H       
  67 H67            9.9736   -15.9446    -1.3109 H       
  68 H68            9.2181   -18.5315     0.1615 H       
  69 H69           10.5010   -17.3455     0.5754 H       
  70 H70            8.9041   -15.6955     1.2892 H       
  71 H71            8.1194   -17.2044     1.8484 H       
@<TRIPOS>BOND
   1    1    2 1
   2    1    8 1
   3    2    3 ar
   4    2    7 ar
   5    3    4 ar
   6    3   38 1
   7    4    5 ar
   8    4   39 1
   9    5    6 ar
  10    5   12 1
  11    6    7 ar
  12    6   40 1
  13    7   41 1
  14    8   42 1
  15    8   43 1
  16    8   44 1
  17    9   10 1
  18    9   14 1
  19    9   15 am
  20   10   11 1
  21   10   45 1
  22   10   46 1
  23   11   12 1
  24   11   47 1
  25   11   48 1
  26   12   13 1
  27   12   49 1
  28   13   14 1
  29   13   50 1
  30   13   51 1
  31   14   52 1
  32   14   53 1
  33   15   16 1
  34   15   22 2
  35   16   17 ar
  36   16   21 ar
  37   17   18 ar
  38   17   54 1
  39   18   19 ar
  40   18   55 1
  41   19   20 ar
  42   19   23 1
  43   20   21 ar
  44   20   24 1
  45   21   56 1
  46   23   57 1
  47   23   58 1
  48   23   59 1
  49   24   25 am
  50   24   26 2
  51   25   27 1
  52   25   60 1
  53   27   28 ar
  54   27   32 ar
  55   28   29 ar
  56   28   61 1
  57   29   30 ar
  58   30   31 ar
  59   30   33 1
  60   31   32 ar
  61   31   62 1
  62   32   63 1
  63   33   34 1
  64   33   37 1
  65   34   35 1
  66   34   64 1
  67   34   65 1
  68   35   36 1
  69   35   66 1
  70   35   67 1
  71   36   37 1
  72   36   68 1
  73   36   69 1
  74   37   70 1
  75   37   71 1

#	End of record

