#	Name: ASD01870485
#	Creating user name:	WinNT
#	Creation time:	15. 06. 2019 19:39

#	Modifying user name:	WinNT
#	Modification time:	15. 06. 2019 19:39

#	Program:	/corina/corina34_cracker 3.40 0067  02.08.2006

@<TRIPOS>MOLECULE
ASD01870485
  39   42    0    0    0
SMALL
NO_CHARGES


@<TRIPOS>ATOM
   1 C1            -0.0307     1.3983    -0.2314 C.ar    
   2 C2            -0.0277     0.0163    -0.1039 C.ar    
   3 C3             1.1530    -0.6623     0.1410 C.ar    
   4 C4             2.3479     0.0286     0.2622 C.ar    
   5 C5             2.3597     1.4090     0.1372 C.ar    
   6 C6             1.1569     2.1011    -0.1124 C.ar    
   7 C7             3.4140     2.4420     0.2047 C.2     
   8 N8             2.8481     3.6461     0.0063 N.am    
   9 C9             1.5218     3.5317    -0.1870 C.2     
  10 O10            0.7531     4.4498    -0.3903 O.2     
  11 O11            4.5942     2.2380     0.4062 O.2     
  12 C12            3.5490     4.8620     0.0033 C.ar    
  13 C13            4.0791     5.3546    -1.1814 C.ar    
  14 C14            4.7686     6.5505    -1.1849 C.ar    
  15 C15            4.9327     7.2614    -0.0029 C.ar    
  16 C16            4.4027     6.7693     1.1825 C.ar    
  17 C17            3.7074     5.5754     1.1848 C.ar    
  18 Cl18           3.0379     4.9634     2.6650 Cl      
  19 N19            5.6328     8.4737    -0.0066 N.am    
  20 C20            6.4053     8.8090     1.0457 C.2     
  21 C21            7.2223    10.0349     0.9992 C.2     
  22 O22            6.4282     8.1001     2.0337 O.2     
  23 C23            8.0448    10.4963     1.9806 C.2     
  24 O24            8.5931    11.6353     1.5284 O.3     
  25 C25            8.1185    11.8690     0.2967 C.2     
  26 N26            7.3009    10.9153    -0.0353 N.2     
  27 C27            8.2924     9.8516     3.3201 C.3     
  28 Cl28          -1.5150    -0.8666    -0.2521 Cl      
  29 H29           -0.9542     1.9230    -0.4270 H       
  30 H30            1.1431    -1.7378     0.2387 H       
  31 H31            3.2663    -0.5062     0.4538 H       
  32 H32            3.9524     4.8018    -2.1006 H       
  33 H33            5.1809     6.9333    -2.1068 H       
  34 H34            4.5302     7.3219     2.1017 H       
  35 H35            5.5619     9.0724    -0.7665 H       
  36 H36            8.3785    12.7140    -0.3236 H       
  37 H37            9.1318     9.1608     3.2412 H       
  38 H38            8.5231    10.6212     4.0566 H       
  39 H39            7.4012     9.3064     3.6312 H       
@<TRIPOS>BOND
   1    1    2 ar
   2    1    6 ar
   3    1   29 1
   4    2    3 ar
   5    2   28 1
   6    3    4 ar
   7    3   30 1
   8    4    5 ar
   9    4   31 1
  10    5    7 1
  11    5    6 ar
  12    6    9 1
  13    7    8 am
  14    7   11 2
  15    8    9 am
  16    8   12 1
  17    9   10 2
  18   12   13 ar
  19   12   17 ar
  20   13   14 ar
  21   13   32 1
  22   14   15 ar
  23   14   33 1
  24   15   16 ar
  25   15   19 1
  26   16   17 ar
  27   16   34 1
  28   17   18 1
  29   19   20 am
  30   19   35 1
  31   20   21 1
  32   20   22 2
  33   21   23 2
  34   21   26 1
  35   23   24 1
  36   23   27 1
  37   24   25 1
  38   25   26 2
  39   25   36 1
  40   27   37 1
  41   27   38 1
  42   27   39 1

#	End of record

