#	Name: ASD01120278
#	Creating user name:	WinNT
#	Creation time:	15. 06. 2019 18:59

#	Modifying user name:	WinNT
#	Modification time:	15. 06. 2019 18:59

#	Program:	/corina/corina34_cracker 3.40 0067  02.08.2006

@<TRIPOS>MOLECULE
ASD01120278
  31   33    0    0    0
SMALL
NO_CHARGES


@<TRIPOS>ATOM
   1 F1            -0.6541    -0.7029    -0.2231 F       
   2 C2            -0.5704     0.6443    -0.2808 C.ar    
   3 C3             0.6658     1.2565    -0.4030 C.ar    
   4 C4             0.7545     2.6352    -0.4619 C.ar    
   5 C5            -0.3896     3.4060    -0.3994 C.ar    
   6 C6            -1.6318     2.7960    -0.2773 C.ar    
   7 C7            -1.7202     1.4116    -0.2235 C.ar    
   8 N8            -2.7923     3.5756    -0.2133 N.pl3   
   9 C9            -3.3350     4.3002    -1.2592 C.2     
  10 C10           -4.4593     4.9316    -0.8270 C.2     
  11 C11           -4.6425     4.6015     0.5375 C.ar    
  12 C12           -3.5854     3.7432     0.8992 C.ar    
  13 C13           -3.5145     3.2564     2.2012 C.ar    
  14 C14           -4.4746     3.6167     3.1201 C.ar    
  15 C15           -5.5162     4.4633     2.7611 C.ar    
  16 C16           -5.6093     4.9501     1.4898 C.ar    
  17 N17           -2.4104     2.3533     2.5969 N.pl3   
  18 O18           -2.6328     1.4015     3.3235 O.2     
  19 O19           -1.2794     2.5621     2.1957 O.2     
  20 C20           -2.7849     4.3759    -2.6186 C.2     
  21 O21           -3.3451     5.0456    -3.4646 O.2     
  22 O22           -1.6584     3.7027    -2.9286 O.3     
  23 H23            1.5622     0.6561    -0.4521 H       
  24 H24            1.7200     3.1098    -0.5564 H       
  25 H25           -0.3187     4.4827    -0.4451 H       
  26 H26           -2.6845     0.9346    -0.1290 H       
  27 H27           -5.0979     5.5707    -1.4187 H       
  28 H28           -4.4176     3.2374     4.1297 H       
  29 H29           -6.2608     4.7359     3.4943 H       
  30 H30           -6.4224     5.6078     1.2202 H       
  31 H31           -1.3345     3.7831    -3.8361 H       
@<TRIPOS>BOND
   1    1    2 1
   2    2    3 ar
   3    2    7 ar
   4    3    4 ar
   5    3   23 1
   6    4    5 ar
   7    4   24 1
   8    5    6 ar
   9    5   25 1
  10    6    7 ar
  11    6    8 1
  12    7   26 1
  13    8    9 1
  14    8   12 1
  15    9   10 2
  16    9   20 1
  17   10   11 1
  18   10   27 1
  19   11   12 ar
  20   11   16 ar
  21   12   13 ar
  22   13   14 ar
  23   13   17 1
  24   14   15 ar
  25   14   28 1
  26   15   16 ar
  27   15   29 1
  28   16   30 1
  29   17   18 2
  30   17   19 2
  31   20   21 2
  32   20   22 1
  33   22   31 1

#	End of record

