#	Name: ASD01208868
#	Creating user name:	WinNT
#	Creation time:	15. 06. 2019 19:10

#	Modifying user name:	WinNT
#	Modification time:	15. 06. 2019 19:10

#	Program:	/corina/corina34_cracker 3.40 0067  02.08.2006

@<TRIPOS>MOLECULE
ASD01208868
  64   68    0    0    0
SMALL
NO_CHARGES


@<TRIPOS>ATOM
   1 C1            -0.5147     1.4605     1.4820 C.2     
   2 C2            -0.3539     0.1492     0.8188 C.ar    
   3 C3             0.8823    -0.2185     0.2855 C.ar    
   4 C4             1.0286    -1.4479    -0.3350 C.ar    
   5 C5            -0.0518    -2.3136    -0.4274 C.ar    
   6 C6            -1.2825    -1.9523     0.1014 C.ar    
   7 C7            -1.4361    -0.7268     0.7293 C.ar    
   8 O8             0.4307     2.2203     1.5634 O.2     
   9 N9            -1.7108     1.8159     1.9914 N.am    
  10 S10           -0.6203     4.2080     2.8047 S.3     
  11 C11           -1.8618     3.0480     2.6145 C.2     
  12 N12           -2.9648     3.4860     3.1363 N.2     
  13 C13           -2.9297     4.6839     3.6895 C.2     
  14 C14           -1.7405     5.2866     3.6326 C.2     
  15 C15           -4.1349     5.3194     4.3333 C.3     
  16 O16           -2.3376    -2.8036     0.0078 O.3     
  17 C17           -3.1549    -2.6900    -1.0709 C.ar    
  18 C18           -4.3049    -3.4649    -1.1535 C.ar    
  19 C19           -5.1367    -3.3524    -2.2464 C.ar    
  20 C20           -4.8226    -2.4578    -3.2714 C.ar    
  21 C21           -3.6661    -1.6803    -3.1846 C.ar    
  22 C22           -2.8418    -1.7950    -2.0862 C.ar    
  23 O23           -5.5323    -1.5167    -5.5019 O.3     
  24 C24           -5.7116    -2.3345    -4.4453 C.2     
  25 N25           -6.8232    -3.0010    -4.6537 N.2     
  26 N26           -7.3323    -2.6361    -5.7776 N.2     
  27 C27           -6.5726    -1.7301    -6.3266 C.2     
  28 C28           -6.8164    -1.0457    -7.6469 C.3     
  29 O29            2.2320    -1.8067    -0.8546 O.3     
  30 C30            2.3121    -3.0888    -1.4806 C.3     
  31 C31            3.7331    -3.3145    -2.0010 C.3     
  32 C32            3.8523    -4.7340    -2.5593 C.3     
  33 C33            5.2733    -4.9596    -3.0798 C.3     
  34 C34            5.5773    -3.9487    -4.1873 C.3     
  35 C35            5.4580    -2.5292    -3.6290 C.3     
  36 C36            4.0371    -2.3036    -3.1086 C.3     
  37 H37            1.7236     0.4550     0.3563 H       
  38 H38            0.0656    -3.2713    -0.9126 H       
  39 H39           -2.3933    -0.4480     1.1446 H       
  40 H40           -2.4661     1.2112     1.9229 H       
  41 H41           -1.5057     6.2649     4.0254 H       
  42 H42           -4.1676     5.0496     5.3889 H       
  43 H43           -4.0691     6.4031     4.2372 H       
  44 H44           -5.0398     4.9650     3.8396 H       
  45 H45           -4.5472    -4.1566    -0.3602 H       
  46 H46           -6.0302    -3.9557    -2.3102 H       
  47 H47           -3.4196    -0.9876    -3.9756 H       
  48 H48           -1.9490    -1.1913    -2.0165 H       
  49 H49           -6.3434    -1.6175    -8.4453 H       
  50 H50           -7.8889    -0.9830    -7.8311 H       
  51 H51           -6.3932    -0.0416    -7.6192 H       
  52 H52            2.0636    -3.8635    -0.7552 H       
  53 H53            1.6093    -3.1314    -2.3127 H       
  54 H54            4.4438    -3.1841    -1.1850 H       
  55 H55            3.6357    -5.4541    -1.7703 H       
  56 H56            3.1415    -4.8643    -3.3754 H       
  57 H57            5.9841    -4.8292    -2.2637 H       
  58 H58            5.3583    -5.9709    -3.4775 H       
  59 H59            6.5896    -4.1095    -4.5581 H       
  60 H60            4.8665    -4.0791    -5.0033 H       
  61 H61            6.1688    -2.3988    -2.8130 H       
  62 H62            5.6746    -1.8091    -4.4180 H       
  63 H63            3.3263    -2.4340    -3.9246 H       
  64 H64            3.9521    -1.2923    -2.7108 H       
@<TRIPOS>BOND
   1    1    2 1
   2    1    8 2
   3    1    9 am
   4    2    3 ar
   5    2    7 ar
   6    3    4 ar
   7    3   37 1
   8    4    5 ar
   9    4   29 1
  10    5    6 ar
  11    5   38 1
  12    6    7 ar
  13    6   16 1
  14    7   39 1
  15    9   11 1
  16    9   40 1
  17   10   11 1
  18   10   14 1
  19   11   12 2
  20   12   13 1
  21   13   14 2
  22   13   15 1
  23   14   41 1
  24   15   42 1
  25   15   43 1
  26   15   44 1
  27   16   17 1
  28   17   18 ar
  29   17   22 ar
  30   18   19 ar
  31   18   45 1
  32   19   20 ar
  33   19   46 1
  34   20   21 ar
  35   20   24 1
  36   21   22 ar
  37   21   47 1
  38   22   48 1
  39   23   24 1
  40   23   27 1
  41   24   25 2
  42   25   26 1
  43   26   27 2
  44   27   28 1
  45   28   49 1
  46   28   50 1
  47   28   51 1
  48   29   30 1
  49   30   31 1
  50   30   52 1
  51   30   53 1
  52   31   32 1
  53   31   36 1
  54   31   54 1
  55   32   33 1
  56   32   55 1
  57   32   56 1
  58   33   34 1
  59   33   57 1
  60   33   58 1
  61   34   35 1
  62   34   59 1
  63   34   60 1
  64   35   36 1
  65   35   61 1
  66   35   62 1
  67   36   63 1
  68   36   64 1

#	End of record

