#	Name: ASD03092882
#	Creating user name:	WinNT
#	Creation time:	15. 06. 2019 20:33

#	Modifying user name:	WinNT
#	Modification time:	15. 06. 2019 20:33

#	Program:	/corina/corina34_cracker 3.40 0067  02.08.2006

@<TRIPOS>MOLECULE
ASD03092882
  49   51    0    0    0
SMALL
NO_CHARGES


@<TRIPOS>ATOM
   1 C1            -0.0187     1.5258     0.0104 C.3     
   2 C2             0.0021    -0.0041     0.0020 C.3     
   3 C3            -1.2267    -0.6840     0.6092 C.3     
   4 C4             0.6786    -0.6949    -1.1837 C.3     
   5 H5             0.2483    -1.6340    -1.5315 H       
   6 C6             1.2822     0.1970    -2.2705 C.3     
   7 N7             1.7734    -0.6374    -3.3699 N.pl3   
   8 C8             2.3721    -0.0418    -4.4879 C.ar    
   9 C9             2.5055     1.3367    -4.5526 C.ar    
  10 C10            3.0962     1.9232    -5.6569 C.ar    
  11 C11            3.5556     1.1368    -6.6989 C.ar    
  12 F12            4.1320     1.7140    -7.7758 F       
  13 C13            3.4260    -0.2409    -6.6397 C.ar    
  14 C14            2.8397    -0.8341    -5.5343 C.ar    
  15 O15            2.7164    -2.1872    -5.4723 O.3     
  16 C16            3.2182    -2.9359    -6.5812 C.3     
  17 F17            2.5467    -2.5502    -7.7464 F       
  18 F18            4.5874    -2.6896    -6.7289 F       
  19 C19            1.3553    -0.6933     0.1885 C.3     
  20 H20            2.2307    -0.0568     0.3173 H       
  21 C21            1.3757    -1.9902     0.9558 C.ar    
  22 C22            0.6516    -3.0752     0.4986 C.ar    
  23 C23            0.6703    -4.2649     1.2024 C.ar    
  24 C24            1.4136    -4.3695     2.3632 C.ar    
  25 C25            2.1385    -3.2847     2.8199 C.ar    
  26 C26            2.1231    -2.0964     2.1138 C.ar    
  27 S27            1.4366    -5.8855     3.2609 S.o2    
  28 N28            2.6922    -6.7876     2.6675 N.am    
  29 O29            1.7784    -5.5539     4.5997 O.2     
  30 O30            0.2454    -6.5769     2.9113 O.2     
  31 H31            1.0039     1.9031     0.0027 H       
  32 H32           -0.5459     1.8868    -0.8726 H       
  33 H33           -0.5289     1.8773     0.9072 H       
  34 H34           -2.0035    -0.7757    -0.1499 H       
  35 H35           -0.9523    -1.6754     0.9699 H       
  36 H36           -1.5997    -0.0854     1.4403 H       
  37 H37            0.5196     0.8797    -2.6452 H       
  38 H38            2.1093     0.7705    -1.8521 H       
  39 H39            1.6841    -1.6022    -3.3239 H       
  40 H40            2.1478     1.9525    -3.7407 H       
  41 H41            3.1989     2.9972    -5.7064 H       
  42 H42            3.7856    -0.8526    -7.4539 H       
  43 H43            3.0573    -3.9993    -6.4043 H       
  44 H44            0.0709    -2.9935    -0.4084 H       
  45 H45            0.1040    -5.1124     0.8455 H       
  46 H46            2.7189    -3.3664     3.7270 H       
  47 H47            2.6925    -1.2500     2.4686 H       
  48 H48            3.2458    -6.4370     1.9523 H       
  49 H49            2.8740    -7.6667     3.0350 H       
@<TRIPOS>BOND
   1    1    2 1
   2    1   31 1
   3    1   32 1
   4    1   33 1
   5    2   19 1
   6    2    3 1
   7    2    4 1
   8    3   34 1
   9    3   35 1
  10    3   36 1
  11    4    5 1
  12    4    6 1
  13    4   19 1
  14    6    7 1
  15    6   37 1
  16    6   38 1
  17    7    8 1
  18    7   39 1
  19    8   14 ar
  20    8    9 ar
  21    9   10 ar
  22    9   40 1
  23   10   11 ar
  24   10   41 1
  25   11   12 1
  26   11   13 ar
  27   13   14 ar
  28   13   42 1
  29   14   15 1
  30   15   16 1
  31   16   17 1
  32   16   18 1
  33   16   43 1
  34   19   20 1
  35   19   21 1
  36   21   26 ar
  37   21   22 ar
  38   22   23 ar
  39   22   44 1
  40   23   24 ar
  41   23   45 1
  42   24   25 ar
  43   24   27 1
  44   25   26 ar
  45   25   46 1
  46   26   47 1
  47   27   28 am
  48   27   29 2
  49   27   30 2
  50   28   48 1
  51   28   49 1

#	End of record

