#	Name: ASD01840245
#	Creating user name:	WinNT
#	Creation time:	15. 06. 2019 19:37

#	Modifying user name:	WinNT
#	Modification time:	15. 06. 2019 19:37

#	Program:	/corina/corina34_cracker 3.40 0067  02.08.2006

@<TRIPOS>MOLECULE
ASD01840245
  44   47    0    0    0
SMALL
NO_CHARGES


@<TRIPOS>ATOM
   1 C1             0.5060    -0.9897     0.6316 C.3     
   2 C2             0.1819    -2.4259     0.9533 C.2     
   3 N3             0.1102    -3.3644     0.0310 N.2     
   4 C4            -0.1745    -4.5586     0.4278 C.2     
   5 S5            -0.3878    -4.5810     2.1240 S.3     
   6 C6            -0.0507    -2.8532     2.1980 C.2     
   7 C7            -0.0306    -2.0063     3.4444 C.3     
   8 N8            -1.3698    -1.4648     3.6884 N.pl3   
   9 C9            -1.6008    -0.6415     4.7976 C.2     
  10 N10           -0.7069    -0.2805     5.6806 N.2     
  11 N11           -1.3161     0.5399     6.6340 N.pl3   
  12 C12           -0.6590     1.1534     7.7907 C.3     
  13 C13           -0.1299     2.5356     7.4029 C.3     
  14 O14            0.5110     3.1341     8.5313 O.3     
  15 C15           -2.6503     0.6696     6.2911 C.2     
  16 C16           -2.8429    -0.0536     5.1494 C.2     
  17 S17           -4.5134     0.0469     4.6155 S.3     
  18 C18           -4.9683     1.0904     5.9550 C.ar    
  19 N19           -6.1547     1.6271     6.2558 N.ar    
  20 C20           -6.3284     2.3949     7.3071 C.ar    
  21 C21           -7.6936     2.9677     7.5888 C.3     
  22 C22           -5.2779     2.6866     8.1614 C.ar    
  23 C23           -4.0297     2.1611     7.9019 C.ar    
  24 C24           -2.8659     2.4592     8.8116 C.3     
  25 C25           -3.8661     1.3319     6.7727 C.ar    
  26 H26            1.5853    -0.8428     0.6727 H       
  27 H27            0.1447    -0.7510    -0.3687 H       
  28 H28            0.0225    -0.3366     1.3580 H       
  29 H29           -0.2650    -5.4195    -0.2180 H       
  30 H30            0.2746    -2.6172     4.2939 H       
  31 H31            0.6750    -1.1857     3.3148 H       
  32 H32           -2.0965    -1.6765     3.0818 H       
  33 H33           -1.3765     1.2543     8.6050 H       
  34 H34            0.1706     0.5242     8.1133 H       
  35 H35            0.5876     2.4347     6.5887 H       
  36 H36           -0.9595     3.1648     7.0803 H       
  37 H37            0.8714     4.0145     8.3577 H       
  38 H38           -8.2528     2.2793     8.2224 H       
  39 H39           -7.5876     3.9256     8.0980 H       
  40 H40           -8.2277     3.1126     6.6497 H       
  41 H41           -5.4347     3.3199     9.0221 H       
  42 H42           -2.7192     1.6259     9.4989 H       
  43 H43           -1.9650     2.6006     8.2146 H       
  44 H44           -3.0717     3.3665     9.3794 H       
@<TRIPOS>BOND
   1    1    2 1
   2    1   26 1
   3    1   27 1
   4    1   28 1
   5    2    6 2
   6    2    3 1
   7    3    4 2
   8    4    5 1
   9    4   29 1
  10    5    6 1
  11    6    7 1
  12    7    8 1
  13    7   30 1
  14    7   31 1
  15    8    9 1
  16    8   32 1
  17    9   16 1
  18    9   10 2
  19   10   11 1
  20   11   12 1
  21   11   15 1
  22   12   13 1
  23   12   33 1
  24   12   34 1
  25   13   14 1
  26   13   35 1
  27   13   36 1
  28   14   37 1
  29   15   25 1
  30   15   16 2
  31   16   17 1
  32   17   18 1
  33   18   25 ar
  34   18   19 ar
  35   19   20 ar
  36   20   21 1
  37   20   22 ar
  38   21   38 1
  39   21   39 1
  40   21   40 1
  41   22   23 ar
  42   22   41 1
  43   23   24 1
  44   23   25 ar
  45   24   42 1
  46   24   43 1
  47   24   44 1

#	End of record

