#	Name: ASD00172016
#	Creating user name:	WinNT
#	Creation time:	15. 06. 2019 18:33

#	Modifying user name:	WinNT
#	Modification time:	15. 06. 2019 18:33

#	Program:	/corina/corina34_cracker 3.40 0067  02.08.2006

@<TRIPOS>MOLECULE
ASD00172016
  45   47    0    0    0
SMALL
NO_CHARGES


@<TRIPOS>ATOM
   1 C1            -0.0217     1.3351    -0.1116 C.2     
   2 C2             0.0099     0.0096    -0.1440 C.2     
   3 C3            -1.3393    -0.5637    -0.0805 C.2     
   4 C4            -2.3276     0.3688     0.0597 C.2     
   5 S5            -1.6661     1.9343     0.0978 S.3     
   6 N6            -3.6737     0.0805     0.1562 N.pl3   
   7 C7            -1.6017    -2.0002    -0.1605 C.2     
   8 C8            -1.7887    -2.6457    -1.4784 C.ar    
   9 O9            -1.6662    -2.6650     0.8576 O.2     
  10 C10           -1.8231    -1.8717    -2.6392 C.ar    
  11 C11           -1.9979    -2.4800    -3.8653 C.ar    
  12 C12           -2.1388    -3.8538    -3.9454 C.ar    
  13 C13           -2.1056    -4.6270    -2.7982 C.ar    
  14 C14           -1.9257    -4.0320    -1.5669 C.ar    
  15 C15            1.1706     2.2633    -0.2451 C.3     
  16 C16            1.5549     2.3314    -1.7262 C.3     
  17 C17            1.7728     0.9061    -2.2440 C.3     
  18 C18            2.9394     0.3579    -1.4472 C.3     
  19 C19            2.5393    -0.1900    -0.0888 C.3     
  20 C20            1.2101    -0.9317    -0.1480 C.3     
  21 C21            0.4287     2.9986    -2.5183 C.3     
  22 C22           -2.2604    -6.1229    -2.8950 C.3     
  23 F23           -2.4229    -6.4892    -4.2354 F       
  24 F24           -1.1191    -6.7444    -2.3768 F       
  25 F25           -3.3829    -6.5239    -2.1626 F       
  26 H26           -3.9830    -0.8326     0.0495 H       
  27 H27           -4.3105     0.7911     0.3308 H       
  28 H28           -1.7135    -0.7991    -2.5779 H       
  29 H29           -2.0251    -1.8821    -4.7643 H       
  30 H30           -2.2757    -4.3250    -4.9076 H       
  31 H31           -1.8999    -4.6366    -0.6723 H       
  32 H32            0.9048     3.2581     0.1126 H       
  33 H33            2.0073     1.8740     0.3350 H       
  34 H34            2.4743     2.9059    -1.8392 H       
  35 H35            0.8818     0.3023    -2.0716 H       
  36 H36            2.0174     0.9243    -3.3061 H       
  37 H37            3.4097    -0.4406    -2.0210 H       
  38 H38            3.6680     1.1553    -1.3013 H       
  39 H39            3.3127    -0.8742     0.2601 H       
  40 H40            2.4538     0.6367     0.6165 H       
  41 H41            1.1391    -1.5961     0.7132 H       
  42 H42            1.1828    -1.5329    -1.0568 H       
  43 H43            0.2664     4.0076    -2.1395 H       
  44 H44            0.7043     3.0460    -3.5719 H       
  45 H45           -0.4868     2.4174    -2.4080 H       
@<TRIPOS>BOND
   1    1    2 2
   2    1   15 1
   3    1    5 1
   4    2    3 1
   5    2   20 1
   6    3    4 2
   7    3    7 1
   8    4    5 1
   9    4    6 1
  10    6   26 1
  11    6   27 1
  12    7    8 1
  13    7    9 2
  14    8   10 ar
  15    8   14 ar
  16   10   11 ar
  17   10   28 1
  18   11   12 ar
  19   11   29 1
  20   12   13 ar
  21   12   30 1
  22   13   14 ar
  23   13   22 1
  24   14   31 1
  25   15   16 1
  26   15   32 1
  27   15   33 1
  28   16   17 1
  29   16   21 1
  30   16   34 1
  31   17   18 1
  32   17   35 1
  33   17   36 1
  34   18   19 1
  35   18   37 1
  36   18   38 1
  37   19   20 1
  38   19   39 1
  39   19   40 1
  40   20   41 1
  41   20   42 1
  42   21   43 1
  43   21   44 1
  44   21   45 1
  45   22   23 1
  46   22   24 1
  47   22   25 1

#	End of record

