#	Name: ASD05430343
#	Creating user name:	WinNT
#	Creation time:	15. 06. 2019 21:00

#	Modifying user name:	WinNT
#	Modification time:	15. 06. 2019 21:00

#	Program:	/corina/corina34_cracker 3.40 0067  02.08.2006

@<TRIPOS>MOLECULE
ASD05430343
  55   59    0    0    0
SMALL
NO_CHARGES


@<TRIPOS>ATOM
   1 C1            -0.0168     1.3905     0.0097 C.ar    
   2 C2             0.0021    -0.0041     0.0020 C.ar    
   3 C3            -1.1894    -0.7183     0.0096 C.ar    
   4 C4            -2.3954    -0.0525     0.0246 C.ar    
   5 C5            -2.4222     1.3461     0.0324 C.ar    
   6 C6            -1.2227     2.0650     0.0306 C.ar    
   7 C7            -4.8635     1.3651     0.0557 C.2     
   8 C8            -3.7094     2.0591     0.0485 C.2     
   9 N9            -7.3810     1.4432     0.0801 N.am    
  10 C10           -6.1469     2.0760     0.0718 C.2     
  11 C11           -8.4204     2.2956     2.1848 C.ar    
  12 C12           -7.3308     1.8645     2.9183 C.ar    
  13 C13           -9.6033     2.6151     2.8250 C.ar    
  14 C14           -9.6976     2.5043     4.1993 C.ar    
  15 C15           -8.6070     2.0726     4.9350 C.ar    
  16 C16           -7.4229     1.7525     4.2927 C.ar    
  17 F17           -8.6979     1.9644     6.2786 F       
  18 O18            1.1512     2.0862     0.0023 O.3     
  19 C19            1.0571     3.5121     0.0108 C.3     
  20 C20            1.6007    -1.7066     0.8216 C.2     
  21 N21            1.2256    -0.6862    -0.0138 N.pl3   
  22 C22            2.8464    -2.0685     0.4603 C.2     
  23 N23            3.2263    -1.2939    -0.5668 N.2     
  24 C24            2.2643    -0.4620    -0.8601 C.2     
  25 C25            3.6711    -3.1559     1.0994 C.3     
  26 C26           -8.3167     2.4232     0.6868 C.3     
  27 C27           -7.6763     3.7511     0.2427 C.3     
  28 N28           -6.2580     3.3752     0.0802 N.2     
  29 C29           -8.0657     0.3451    -0.2826 C.2     
  30 C30           -9.5525     0.6346    -0.2788 C.3     
  31 C31           -9.6471     2.1629    -0.0399 C.3     
  32 O32           -7.5662    -0.7215    -0.5711 O.2     
  33 H33           -1.1703    -1.7981     0.0032 H       
  34 H34           -3.3202    -0.6104     0.0301 H       
  35 H35           -1.2388     3.1449     0.0365 H       
  36 H36           -4.8443     0.2853     0.0498 H       
  37 H37           -3.7286     3.1389     0.0545 H       
  38 H38           -6.4073     1.6148     2.4171 H       
  39 H39          -10.4539     2.9518     2.2509 H       
  40 H40          -10.6216     2.7546     4.6993 H       
  41 H41           -6.5716     1.4154     4.8655 H       
  42 H42            0.5119     3.8455    -0.8722 H       
  43 H43            0.5289     3.8360     0.9076 H       
  44 H44            2.0585     3.9423     0.0036 H       
  45 H45            1.0119    -2.1347     1.6193 H       
  46 H46            2.2897     0.2801    -1.6444 H       
  47 H47            3.4797    -4.1021     0.5932 H       
  48 H48            4.7289    -2.9065     1.0155 H       
  49 H49            3.4013    -3.2456     2.1516 H       
  50 H50           -8.0992     4.0884    -0.7036 H       
  51 H51           -7.7899     4.5135     1.0133 H       
  52 H52           -9.9941     0.3714    -1.2400 H       
  53 H53          -10.0441     0.0919     0.5285 H       
  54 H54          -10.4975     2.4099     0.5957 H       
  55 H55           -9.6928     2.7066    -0.9836 H       
@<TRIPOS>BOND
   1    1    2 ar
   2    1   18 1
   3    1    6 ar
   4    2    3 ar
   5    2   21 1
   6    3    4 ar
   7    3   33 1
   8    4    5 ar
   9    4   34 1
  10    5    6 ar
  11    5    8 1
  12    6   35 1
  13    7    8 2
  14    7   10 1
  15    7   36 1
  16    8   37 1
  17    9   10 1
  18    9   26 1
  19    9   29 am
  20   10   28 2
  21   11   12 ar
  22   11   13 ar
  23   11   26 1
  24   12   16 ar
  25   12   38 1
  26   13   14 ar
  27   13   39 1
  28   14   15 ar
  29   14   40 1
  30   15   16 ar
  31   15   17 1
  32   16   41 1
  33   18   19 1
  34   19   42 1
  35   19   43 1
  36   19   44 1
  37   20   21 1
  38   20   22 2
  39   20   45 1
  40   21   24 1
  41   22   23 1
  42   22   25 1
  43   23   24 2
  44   24   46 1
  45   25   47 1
  46   25   48 1
  47   25   49 1
  48   26   27 1
  49   26   31 1
  50   27   28 1
  51   27   50 1
  52   27   51 1
  53   29   30 1
  54   29   32 2
  55   30   31 1
  56   30   52 1
  57   30   53 1
  58   31   54 1
  59   31   55 1

#	End of record

