#	Name: ASD04880138
#	Creating user name:	WinNT
#	Creation time:	15. 06. 2019 20:52

#	Modifying user name:	WinNT
#	Modification time:	15. 06. 2019 20:52

#	Program:	/corina/corina34_cracker 3.40 0067  02.08.2006

@<TRIPOS>MOLECULE
ASD04880138
  47   49    0    0    0
SMALL
NO_CHARGES


@<TRIPOS>ATOM
   1 C1            -0.0144     1.2119     0.0087 C.2     
   2 O2             0.0430    -0.0026     0.0318 O.2     
   3 N3             1.1188     1.9392    -0.0487 N.am    
   4 N4             1.1871     3.3235    -0.1919 N.2     
   5 C5             2.3875     3.7911    -0.2211 C.2     
   6 C6             3.3756     2.6546    -0.0866 C.3     
   7 C7             2.4861     1.4016     0.0360 C.3     
   8 C8             4.2659     2.5678    -1.3279 C.3     
   9 C9             4.2253     2.8285     1.1738 C.3     
  10 C10            2.7426     5.2146    -0.3642 C.ar    
  11 C11            1.7378     6.1791    -0.4810 C.ar    
  12 C12            2.0763     7.5122    -0.6143 C.ar    
  13 C13            3.4169     7.8924    -0.6327 C.ar    
  14 C14            4.4143     6.9357    -0.5173 C.ar    
  15 C15            4.0842     5.6037    -0.3776 C.ar    
  16 O16            3.7478     9.2043    -0.7644 O.3     
  17 C17            5.1405     9.5241    -0.7756 C.3     
  18 O18            1.1011     8.4532    -0.7282 O.3     
  19 C19           -0.2513     7.9924    -0.7021 C.3     
  20 C20           -1.3261     1.8898     0.0375 C.ar    
  21 C21           -2.5031     1.1429    -0.0541 C.ar    
  22 C22           -3.7260     1.7820    -0.0267 C.ar    
  23 C23           -3.7864     3.1645     0.0916 C.ar    
  24 C24           -2.6209     3.9084     0.1822 C.ar    
  25 C25           -1.3942     3.2789     0.1620 C.ar    
  26 F26           -4.9856     3.7861     0.1180 F       
  27 F27           -4.8657     1.0620    -0.1156 F       
  28 H28            2.6454     0.9080     0.9946 H       
  29 H29            2.6796     0.7141    -0.7875 H       
  30 H30            4.8343     3.4919    -1.4327 H       
  31 H31            4.9532     1.7282    -1.2240 H       
  32 H32            3.6444     2.4214    -2.2113 H       
  33 H33            3.5752     2.8653     2.0480 H       
  34 H34            4.9128     1.9879     1.2674 H       
  35 H35            4.7932     3.7563     1.1040 H       
  36 H36            0.6992     5.8831    -0.4673 H       
  37 H37            5.4520     7.2347    -0.5323 H       
  38 H38            4.8628     4.8613    -0.2830 H       
  39 H39            5.5953     9.1999     0.1605 H       
  40 H40            5.6235     9.0150    -1.6096 H       
  41 H41            5.2651    10.6013    -0.8861 H       
  42 H42           -0.9267     8.8422    -0.8016 H       
  43 H43           -0.4151     7.2996    -1.5275 H       
  44 H44           -0.4438     7.4840     0.2426 H       
  45 H45           -2.4561     0.0679    -0.1465 H       
  46 H46           -2.6735     4.9832     0.2733 H       
  47 H47           -0.4870     3.8600     0.2379 H       
@<TRIPOS>BOND
   1    1    2 2
   2    1    3 am
   3    1   20 1
   4    3    4 1
   5    3    7 1
   6    4    5 2
   7    5    6 1
   8    5   10 1
   9    6    7 1
  10    6    8 1
  11    6    9 1
  12    7   28 1
  13    7   29 1
  14    8   30 1
  15    8   31 1
  16    8   32 1
  17    9   33 1
  18    9   34 1
  19    9   35 1
  20   10   11 ar
  21   10   15 ar
  22   11   12 ar
  23   11   36 1
  24   12   13 ar
  25   12   18 1
  26   13   14 ar
  27   13   16 1
  28   14   15 ar
  29   14   37 1
  30   15   38 1
  31   16   17 1
  32   17   39 1
  33   17   40 1
  34   17   41 1
  35   18   19 1
  36   19   42 1
  37   19   43 1
  38   19   44 1
  39   20   21 ar
  40   20   25 ar
  41   21   22 ar
  42   21   45 1
  43   22   23 ar
  44   22   27 1
  45   23   24 ar
  46   23   26 1
  47   24   25 ar
  48   24   46 1
  49   25   47 1

#	End of record

