#	Name: ASD01883003
#	Creating user name:	WinNT
#	Creation time:	15. 06. 2019 19:45

#	Modifying user name:	WinNT
#	Modification time:	15. 06. 2019 19:45

#	Program:	/corina/corina34_cracker 3.40 0067  02.08.2006

@<TRIPOS>MOLECULE
ASD01883003
  52   55    0    0    0
SMALL
NO_CHARGES


@<TRIPOS>ATOM
   1 C1             0.4553     1.4723    -0.1798 C.ar    
   2 C2             0.3468     0.0963    -0.1038 C.ar    
   3 C3             1.4789    -0.6922    -0.1910 C.ar    
   4 C4             2.7194    -0.1047    -0.3547 C.ar    
   5 C5             2.8278     1.2712    -0.4316 C.ar    
   6 C6             1.6959     2.0598    -0.3430 C.ar    
   7 C7             2.7505    -2.8209    -0.2302 C.3     
   8 C8             1.3606    -2.1922    -0.1071 C.3     
   9 C9             0.7406    -2.5804     1.2371 C.3     
  10 C10            0.5901    -4.1034     1.3047 C.3     
  11 N11            1.8978    -4.7199     1.0429 N.pl3   
  12 C12            2.6228    -4.3466    -0.1793 C.3     
  13 N13            3.5303    -7.4381     3.7023 N.am    
  14 C14            2.3788    -7.7608     3.0845 C.2     
  15 C15            1.7917    -6.8558     2.1690 C.2     
  16 C16            2.4338    -5.6298     1.9262 C.2     
  17 C17            3.6354    -5.3499     2.6029 C.2     
  18 C18            4.1472    -6.2502     3.4704 C.2     
  19 O19            1.8426    -8.8319     3.3132 O.2     
  20 C20            0.5672    -7.1831     1.5025 C.1     
  21 N21           -0.4041    -7.4428     0.9738 N.1     
  22 C22            4.1271    -8.3843     4.6482 C.3     
  23 C23            5.0815    -9.3184     3.9016 C.3     
  24 C24            5.8972   -10.3085     4.7354 C.3     
  25 C25            4.7350   -10.8084     3.8750 C.3     
  26 C26            0.4701    -2.6977    -1.2439 C.3     
  27 O27           -0.8276    -2.1103    -1.1295 O.3     
  28 H28           -0.4296     2.0881    -0.1162 H       
  29 H29           -0.6224    -0.3627     0.0241 H       
  30 H30            3.6039    -0.7207    -0.4221 H       
  31 H31            3.7971     1.7302    -0.5592 H       
  32 H32            1.7806     3.1347    -0.4035 H       
  33 H33            3.2010    -2.5249    -1.1776 H       
  34 H34            3.3780    -2.4806     0.5936 H       
  35 H35            1.3869    -2.2424     2.0471 H       
  36 H36           -0.2395    -2.1133     1.3341 H       
  37 H37            0.2417    -4.3925     2.2963 H       
  38 H38           -0.1266    -4.4335     0.5527 H       
  39 H39            2.0719    -4.6965    -1.0523 H       
  40 H40            3.6157    -4.7962    -0.1669 H       
  41 H41            4.1463    -4.4139     2.4319 H       
  42 H42            5.0699    -6.0243     3.9842 H       
  43 H43            4.6787    -7.8357     5.4117 H       
  44 H44            3.3395    -8.9715     5.1205 H       
  45 H45            5.5559    -8.8957     3.0159 H       
  46 H46            6.9080   -10.5376     4.3980 H       
  47 H47            5.7538   -10.2945     5.8158 H       
  48 H48            3.8270   -11.1232     4.3893 H       
  49 H49            4.9812   -11.3663     2.9715 H       
  50 H50            0.9111    -2.4209    -2.2015 H       
  51 H51            0.3844    -3.7826    -1.1834 H       
  52 H52           -1.4466    -2.3866    -1.8192 H       
@<TRIPOS>BOND
   1    1    2 ar
   2    1    6 ar
   3    1   28 1
   4    2    3 ar
   5    2   29 1
   6    3    4 ar
   7    3    8 1
   8    4    5 ar
   9    4   30 1
  10    5    6 ar
  11    5   31 1
  12    6   32 1
  13    7    8 1
  14    7   12 1
  15    7   33 1
  16    7   34 1
  17    8    9 1
  18    8   26 1
  19    9   10 1
  20    9   35 1
  21    9   36 1
  22   10   11 1
  23   10   37 1
  24   10   38 1
  25   11   12 1
  26   11   16 1
  27   12   39 1
  28   12   40 1
  29   13   14 am
  30   13   22 1
  31   13   18 1
  32   14   15 1
  33   14   19 2
  34   15   16 2
  35   15   20 1
  36   16   17 1
  37   17   18 2
  38   17   41 1
  39   18   42 1
  40   20   21 3
  41   22   23 1
  42   22   43 1
  43   22   44 1
  44   23   24 1
  45   23   25 1
  46   23   45 1
  47   24   25 1
  48   24   46 1
  49   24   47 1
  50   25   48 1
  51   25   49 1
  52   26   27 1
  53   26   50 1
  54   26   51 1
  55   27   52 1

#	End of record

