#	Name: ASD03240398
#	Creating user name:	WinNT
#	Creation time:	15. 06. 2019 20:34

#	Modifying user name:	WinNT
#	Modification time:	15. 06. 2019 20:34

#	Program:	/corina/corina34_cracker 3.40 0067  02.08.2006

@<TRIPOS>MOLECULE
ASD03240398
  34   36    0    0    0
SMALL
NO_CHARGES


@<TRIPOS>ATOM
   1 C1            -0.0167     1.3793     0.0096 C.ar    
   2 C2             0.0021    -0.0041     0.0020 C.ar    
   3 C3            -1.1855    -0.7111     0.0100 C.ar    
   4 C4            -2.3919    -0.0362     0.0252 C.ar    
   5 C5            -2.4113     1.3460     0.0328 C.ar    
   6 C6            -1.2243     2.0541     0.0306 C.ar    
   7 C7            -4.0460    -1.9960     2.2055 C.ar    
   8 C8            -4.2311    -0.8609     1.4371 C.ar    
   9 C9            -3.6865    -0.8077     0.0329 C.3     
  10 C10           -4.5428    -2.0500     3.4921 C.ar    
  11 C11           -5.2317    -0.9587     4.0164 C.ar    
  12 C12           -5.4157     0.1819     3.2381 C.ar    
  13 C13           -4.9148     0.2253     1.9526 C.ar    
  14 N14           -4.6585    -0.1420    -0.8444 N.3     
  15 C15           -5.7687    -1.0112     5.3997 C.2     
  16 C16           -6.4586    -0.0203     6.0349 C.2     
  17 N17           -6.7654    -0.4643     7.2704 N.pl3   
  18 N18           -6.2555    -1.7609     7.4086 N.2     
  19 C19           -5.6638    -2.0955     6.2925 C.2     
  20 Cl20           1.4746     2.2680     0.0002 Cl      
  21 H21            0.9445    -0.5314    -0.0105 H       
  22 H22           -1.1710    -1.7910     0.0041 H       
  23 H23           -3.3541     1.8727     0.0447 H       
  24 H24           -1.2396     3.1340     0.0368 H       
  25 H25           -3.5157    -2.8433     1.7964 H       
  26 H26           -3.5076    -1.8213    -0.3260 H       
  27 H27           -4.3980    -2.9369     4.0911 H       
  28 H28           -5.9490     1.0307     3.6398 H       
  29 H29           -5.0565     1.1092     1.3485 H       
  30 H30           -4.8414     0.8000    -0.5325 H       
  31 H31           -4.3453    -0.1508    -1.8036 H       
  32 H32           -6.7128     0.9450     5.6227 H       
  33 H33           -7.2547     0.0294     7.9469 H       
  34 H34           -5.1736    -3.0367     6.0921 H       
@<TRIPOS>BOND
   1    1    2 ar
   2    1   20 1
   3    1    6 ar
   4    2    3 ar
   5    2   21 1
   6    3    4 ar
   7    3   22 1
   8    4    5 ar
   9    4    9 1
  10    5    6 ar
  11    5   23 1
  12    6   24 1
  13    7    8 ar
  14    7   10 ar
  15    7   25 1
  16    8    9 1
  17    8   13 ar
  18    9   14 1
  19    9   26 1
  20   10   11 ar
  21   10   27 1
  22   11   12 ar
  23   11   15 1
  24   12   13 ar
  25   12   28 1
  26   13   29 1
  27   14   30 1
  28   14   31 1
  29   15   16 2
  30   15   19 1
  31   16   17 1
  32   16   32 1
  33   17   18 1
  34   17   33 1
  35   18   19 2
  36   19   34 1

#	End of record

