#	Name: ASD01150205
#	Creating user name:	WinNT
#	Creation time:	15. 06. 2019 19:03

#	Modifying user name:	WinNT
#	Modification time:	15. 06. 2019 19:03

#	Program:	/corina/corina34_cracker 3.40 0067  02.08.2006

@<TRIPOS>MOLECULE
ASD01150205
  44   46    0    0    0
SMALL
NO_CHARGES


@<TRIPOS>ATOM
   1 N1            -0.0161     1.3372     0.0094 N.pl3   
   2 C2             0.0021    -0.0041     0.0020 C.2     
   3 C3            -1.3098    -0.4382     0.0122 C.2     
   4 C4            -2.1312     0.7184     0.0262 C.2     
   5 N5            -1.3475     1.7669     0.0305 N.2     
   6 C6             1.1624     2.2075     0.0028 C.3     
   7 C7             1.0699     3.1823    -1.1728 C.3     
   8 C8            -1.7680    -1.8359     0.0086 C.2     
   9 O9            -0.8689    -2.8398    -0.0053 O.3     
  10 O10           -2.9575    -2.0854     0.0182 O.2     
  11 C11           -1.3929    -4.1940    -0.0080 C.3     
  12 C12           -0.2317    -5.1901    -0.0243 C.3     
  13 N13           -3.5287     0.7353     0.0397 N.am    
  14 C14           -4.1883     1.9105     0.0523 C.2     
  15 C15           -5.6951     1.9288     0.0667 C.3     
  16 O16           -3.5692     2.9535     0.0520 O.2     
  17 O17           -6.1605     3.2766     0.1959 O.3     
  18 C18           -7.4770     3.4973    -0.0701 C.ar    
  19 C19           -8.2265     2.5632    -0.7750 C.ar    
  20 O20           -7.6628     1.4036    -1.2112 O.3     
  21 C21           -6.2323     1.3596    -1.2534 C.3     
  22 C22           -8.0731     4.6701     0.3694 C.ar    
  23 C23           -9.4083     4.9092     0.1052 C.ar    
  24 C24          -10.1535     3.9808    -0.5976 C.ar    
  25 C25           -9.5658     2.8102    -1.0381 C.ar    
  26 H26            0.8817    -0.6305    -0.0097 H       
  27 H27            1.2056     2.7677     0.9368 H       
  28 H28            2.0619     1.6003    -0.0986 H       
  29 H29            1.9467     3.8298    -1.1777 H       
  30 H30            1.0267     2.6221    -2.1068 H       
  31 H31            0.1704     3.7895    -1.0713 H       
  32 H32           -1.9949    -4.3524     0.8867 H       
  33 H33           -2.0114    -4.3424    -0.8931 H       
  34 H34            0.3704    -5.0317    -0.9190 H       
  35 H35            0.3868    -5.0416     0.8608 H       
  36 H36           -0.6250    -6.2066    -0.0263 H       
  37 H37           -4.0238    -0.0988     0.0399 H       
  38 H38           -6.0619     1.3316     0.9016 H       
  39 H39           -5.8704     1.9610    -2.0873 H       
  40 H40           -5.8996     0.3283    -1.3716 H       
  41 H41           -7.4932     5.3969     0.9188 H       
  42 H42           -9.8705     5.8229     0.4488 H       
  43 H43          -11.1967     4.1706    -0.8027 H       
  44 H44          -10.1500     2.0866    -1.5872 H       
@<TRIPOS>BOND
   1    1    2 1
   2    1    6 1
   3    1    5 1
   4    2    3 2
   5    2   26 1
   6    3    4 1
   7    3    8 1
   8    4    5 2
   9    4   13 1
  10    6    7 1
  11    6   27 1
  12    6   28 1
  13    7   29 1
  14    7   30 1
  15    7   31 1
  16    8    9 1
  17    8   10 2
  18    9   11 1
  19   11   12 1
  20   11   32 1
  21   11   33 1
  22   12   34 1
  23   12   35 1
  24   12   36 1
  25   13   14 am
  26   13   37 1
  27   14   15 1
  28   14   16 2
  29   15   17 1
  30   15   21 1
  31   15   38 1
  32   17   18 1
  33   18   19 ar
  34   18   22 ar
  35   19   20 1
  36   19   25 ar
  37   20   21 1
  38   21   39 1
  39   21   40 1
  40   22   23 ar
  41   22   41 1
  42   23   24 ar
  43   23   42 1
  44   24   25 ar
  45   24   43 1
  46   25   44 1

#	End of record

