#	Name: ASD01200061
#	Creating user name:	WinNT
#	Creation time:	15. 06. 2019 19:08

#	Modifying user name:	WinNT
#	Modification time:	15. 06. 2019 19:08

#	Program:	/corina/corina34_cracker 3.40 0067  02.08.2006

@<TRIPOS>MOLECULE
ASD01200061
  43   45    0    0    0
SMALL
NO_CHARGES


@<TRIPOS>ATOM
   1 C1             0.0534     1.2521    -0.1762 C.ar    
   2 C2            -0.1451    -0.0805     0.1725 C.ar    
   3 C3            -1.4086    -0.6321     0.1273 C.ar    
   4 C4            -2.4934     0.1403    -0.2672 C.ar    
   5 C5            -2.3006     1.4850    -0.6202 C.ar    
   6 C6            -1.0183     2.0368    -0.5660 C.ar    
   7 C7            -3.4459     2.3121    -1.0406 C.2     
   8 N8            -3.2846     3.6352    -1.2397 N.am    
   9 C9            -4.3630     4.4140    -1.6355 C.2     
  10 O10           -4.5364     1.8005    -1.2078 O.2     
  11 S11            1.6725     1.9445    -0.1142 S.3     
  12 N12           -3.7671    -0.4173    -0.3128 N.pl3   
  13 N13           -4.3233     5.6898    -1.8550 N.2     
  14 C14           -5.4782     6.2489    -2.2304 C.2     
  15 C15           -6.5199     5.3959    -2.3254 C.2     
  16 S16           -5.9938     3.8193    -1.9241 S.3     
  17 C17            2.2649     1.4806    -1.7074 C.2     
  18 N18            3.5153     1.7082    -2.2067 N.pl3   
  19 C19            3.5136     1.1767    -3.4664 C.2     
  20 N20            2.3291     0.6745    -3.6740 N.2     
  21 N21            1.5893     0.8458    -2.6370 N.2     
  22 C22            4.6279     2.3819    -1.5325 C.3     
  23 C23           -5.6043     7.6855    -2.5177 C.2     
  24 O24           -6.6775     8.1459    -2.8554 O.2     
  25 O25           -4.5297     8.4920    -2.4065 O.3     
  26 C26           -4.7277     9.8990    -2.7056 C.3     
  27 C27           -3.4066    10.6494    -2.5258 C.3     
  28 H28            0.6947    -0.6862     0.4797 H       
  29 H29           -1.5546    -1.6671     0.3990 H       
  30 H30           -0.8622     3.0708    -0.8362 H       
  31 H31           -2.4148     4.0432    -1.1063 H       
  32 H32           -3.8734    -1.3776    -0.3990 H       
  33 H33           -4.5490     0.1542    -0.2584 H       
  34 H34           -7.5253     5.6657    -2.6133 H       
  35 H35            4.3405     1.1740    -4.1611 H       
  36 H36            5.2195     1.6478    -0.9856 H       
  37 H37            5.2564     2.8757    -2.2736 H       
  38 H38            4.2355     3.1236    -0.8368 H       
  39 H39           -5.0697    10.0070    -3.7349 H       
  40 H40           -5.4755    10.3125    -2.0290 H       
  41 H41           -3.0646    10.5415    -1.4965 H       
  42 H42           -2.6588    10.2359    -3.2024 H       
  43 H43           -3.5552    11.7057    -2.7503 H       
@<TRIPOS>BOND
   1    1    2 ar
   2    1   11 1
   3    1    6 ar
   4    2    3 ar
   5    2   28 1
   6    3    4 ar
   7    3   29 1
   8    4    5 ar
   9    4   12 1
  10    5    6 ar
  11    5    7 1
  12    6   30 1
  13    7    8 am
  14    7   10 2
  15    8    9 1
  16    8   31 1
  17    9   13 2
  18    9   16 1
  19   11   17 1
  20   12   32 1
  21   12   33 1
  22   13   14 1
  23   14   15 2
  24   14   23 1
  25   15   16 1
  26   15   34 1
  27   17   18 1
  28   17   21 2
  29   18   19 1
  30   18   22 1
  31   19   20 2
  32   19   35 1
  33   20   21 1
  34   22   36 1
  35   22   37 1
  36   22   38 1
  37   23   24 2
  38   23   25 1
  39   25   26 1
  40   26   27 1
  41   26   39 1
  42   26   40 1
  43   27   41 1
  44   27   42 1
  45   27   43 1

#	End of record

