#	Name: ASD01901429
#	Creating user name:	WinNT
#	Creation time:	15. 06. 2019 19:53

#	Modifying user name:	WinNT
#	Modification time:	15. 06. 2019 19:53

#	Program:	/corina/corina34_cracker 3.40 0067  02.08.2006

@<TRIPOS>MOLECULE
ASD01901429
  40   43    0    0    0
SMALL
NO_CHARGES


@<TRIPOS>ATOM
   1 C1            -0.0168     1.3889     0.0097 C.ar    
   2 C2             1.1725     2.0932     0.0021 C.ar    
   3 C3             2.3808     1.4152    -0.0131 C.ar    
   4 C4             2.4029     0.0327    -0.0212 C.ar    
   5 C5             1.2204    -0.6796    -0.0137 C.ar    
   6 C6             0.0021    -0.0041     0.0020 C.ar    
   7 C7            -1.2716    -0.7660     0.0106 C.2     
   8 N8            -3.1803    -1.5356    -1.1466 N.2     
   9 C9            -2.0564    -0.8617    -1.1592 C.2     
  10 C10           -1.6985    -1.3895     1.1495 C.2     
  11 N11           -2.8732    -2.0810     1.1230 N.pl3   
  12 C12           -3.6099    -2.1458    -0.0317 C.2     
  13 C13           -3.5508    -2.7935     2.0755 C.2     
  14 C14           -4.6701    -3.2714     1.4917 C.2     
  15 N15           -4.6918    -2.8697     0.2173 N.2     
  16 C16           -5.7208    -4.1161     2.1652 C.3     
  17 O17           -5.3521    -4.3382     3.5278 O.3     
  18 C18           -6.1977    -5.0865     4.2808 C.ar    
  19 C19           -5.8961    -5.3321     5.6137 C.ar    
  20 N20           -7.3030    -5.5696     3.7389 N.ar    
  21 C21           -8.1528    -6.3016     4.4340 C.ar    
  22 C22           -7.9144    -6.5907     5.7652 C.ar    
  23 C23           -6.7660    -6.0967     6.3719 C.ar    
  24 F24            1.1569     3.4441     0.0091 F       
  25 C25           -1.3309     2.1262     0.0324 C.3     
  26 F26           -8.7904    -7.3406     6.4691 F       
  27 H27            3.3084     1.9683    -0.0190 H       
  28 H28            3.3473    -0.4910    -0.0337 H       
  29 H29            1.2397    -1.7594    -0.0204 H       
  30 H30           -1.7294    -0.3775    -2.0675 H       
  31 H31           -1.1142    -1.3355     2.0562 H       
  32 H32           -3.2468    -2.9450     3.1008 H       
  33 H33           -6.6804    -3.6004     2.1279 H       
  34 H34           -5.8025    -5.0733     1.6502 H       
  35 H35           -4.9942    -4.9322     6.0532 H       
  36 H36           -9.0455    -6.6793     3.9577 H       
  37 H37           -6.5570    -6.3044     7.4109 H       
  38 H38           -1.6330     2.2985     1.0655 H       
  39 H39           -1.2197     3.0829    -0.4780 H       
  40 H40           -2.0906     1.5305    -0.4737 H       
@<TRIPOS>BOND
   1    1    6 ar
   2    1    2 ar
   3    1   25 1
   4    2    3 ar
   5    2   24 1
   6    3    4 ar
   7    3   27 1
   8    4    5 ar
   9    4   28 1
  10    5    6 ar
  11    5   29 1
  12    6    7 1
  13    7   10 2
  14    7    9 1
  15    8    9 2
  16    8   12 1
  17    9   30 1
  18   10   11 1
  19   10   31 1
  20   11   13 1
  21   11   12 1
  22   12   15 2
  23   13   14 2
  24   13   32 1
  25   14   15 1
  26   14   16 1
  27   16   17 1
  28   16   33 1
  29   16   34 1
  30   17   18 1
  31   18   20 ar
  32   18   19 ar
  33   19   23 ar
  34   19   35 1
  35   20   21 ar
  36   21   22 ar
  37   21   36 1
  38   22   23 ar
  39   22   26 1
  40   23   37 1
  41   25   38 1
  42   25   39 1
  43   25   40 1

#	End of record

