#	Name: ASD02198217
#	Creating user name:	WinNT
#	Creation time:	15. 06. 2019 20:19

#	Modifying user name:	WinNT
#	Modification time:	15. 06. 2019 20:19

#	Program:	/corina/corina34_cracker 3.40 0067  02.08.2006

@<TRIPOS>MOLECULE
ASD02198217
  51   54    0    0    0
SMALL
NO_CHARGES


@<TRIPOS>ATOM
   1 C1            -0.0166     1.3753     0.0096 C.2     
   2 C2             0.0021    -0.0041     0.0020 C.2     
   3 C3            -1.1878    -0.8008     0.0091 C.1     
   4 S4             1.5675     2.0054    -0.0021 S.3     
   5 C5             2.2772     0.3990    -0.0175 C.2     
   6 C6             1.2824    -0.5520    -0.0132 C.2     
   7 C7             3.6579     0.1249    -0.0329 C.2     
   8 C8             4.6307     1.2351    -0.0365 C.2     
   9 O9             4.0505    -1.0301    -0.0433 O.2     
  10 N10            1.5294    -1.9154    -0.0228 N.pl3   
  11 N11           -1.1593     2.1393     0.0194 N.pl3   
  12 N12           -2.1317    -1.4328     0.0147 N.1     
  13 C13           -1.0630     3.6011     0.0268 C.3     
  14 C14           -2.4689     4.2047     0.0370 C.3     
  15 C15            5.9935     1.1304    -0.0508 C.2     
  16 C16            6.4372     2.4802    -0.0486 C.2     
  17 O17            4.3522     2.5521    -0.0324 O.3     
  18 N18            5.3580     3.2224    -0.0341 N.2     
  19 C19            7.8438     2.9548    -0.0601 C.ar    
  20 C20            8.1209     4.3201    -0.0562 C.ar    
  21 C21            8.8914     2.0365    -0.0689 C.ar    
  22 C22           10.1973     2.4832    -0.0795 C.ar    
  23 C23           10.4668     3.8399    -0.0810 C.ar    
  24 C24            9.4305     4.7560    -0.0669 C.ar    
  25 N25           -2.3723     5.6705     0.0445 N.3     
  26 C26           -3.6876     6.2863    -0.1840 C.3     
  27 C27           -1.3976     6.1394    -0.9511 C.3     
  28 C28           -1.2849     7.6640    -0.8684 C.3     
  29 O29           -2.5779     8.2438    -1.0618 O.3     
  30 C30           -3.5520     7.8094    -0.1090 C.3     
  31 H31            2.4424    -2.2428    -0.0333 H       
  32 H32            0.7893    -2.5424    -0.0191 H       
  33 H33           -2.0294     1.7105     0.0213 H       
  34 H34           -0.5220     3.9250     0.9159 H       
  35 H35           -0.5308     3.9347    -0.8640 H       
  36 H36           -3.0098     3.8808    -0.8521 H       
  37 H37           -3.0011     3.8711     0.9279 H       
  38 H38            6.5928     0.2319    -0.0612 H       
  39 H39            7.3125     5.0362    -0.0452 H       
  40 H40            8.6821     0.9770    -0.0671 H       
  41 H41           11.0102     1.7722    -0.0864 H       
  42 H42           11.4901     4.1852    -0.0886 H       
  43 H43            9.6464     5.8142    -0.0681 H       
  44 H44           -4.0564     6.0018    -1.1695 H       
  45 H45           -4.3868     5.9451     0.5794 H       
  46 H46           -0.4251     5.6910    -0.7476 H       
  47 H47           -1.7298     5.8526    -1.9488 H       
  48 H48           -0.9016     7.9480     0.1117 H       
  49 H49           -0.6062     8.0214    -1.6428 H       
  50 H50           -4.5129     8.2719    -0.3342 H       
  51 H51           -3.2346     8.0976     0.8932 H       
@<TRIPOS>BOND
   1    1    2 2
   2    1    4 1
   3    1   11 1
   4    2    3 1
   5    2    6 1
   6    3   12 3
   7    4    5 1
   8    5    6 2
   9    5    7 1
  10    6   10 1
  11    7    8 1
  12    7    9 2
  13    8   15 2
  14    8   17 1
  15   10   31 1
  16   10   32 1
  17   11   13 1
  18   11   33 1
  19   13   14 1
  20   13   34 1
  21   13   35 1
  22   14   25 1
  23   14   36 1
  24   14   37 1
  25   15   16 1
  26   15   38 1
  27   16   19 1
  28   16   18 2
  29   17   18 1
  30   19   20 ar
  31   19   21 ar
  32   20   24 ar
  33   20   39 1
  34   21   22 ar
  35   21   40 1
  36   22   23 ar
  37   22   41 1
  38   23   24 ar
  39   23   42 1
  40   24   43 1
  41   25   26 1
  42   25   27 1
  43   26   30 1
  44   26   44 1
  45   26   45 1
  46   27   28 1
  47   27   46 1
  48   27   47 1
  49   28   29 1
  50   28   48 1
  51   28   49 1
  52   29   30 1
  53   30   50 1
  54   30   51 1

#	End of record

