#	Name: ASD02560013
#	Creating user name:	WinNT
#	Creation time:	15. 06. 2019 20:24

#	Modifying user name:	WinNT
#	Modification time:	15. 06. 2019 20:24

#	Program:	/corina/corina34_cracker 3.40 0067  02.08.2006

@<TRIPOS>MOLECULE
ASD02560013
  28   29    0    0    0
SMALL
NO_CHARGES


@<TRIPOS>ATOM
   1 C1            -0.0162     1.3460     0.0094 C.2     
   2 C2             0.0021    -0.0041     0.0020 C.2     
   3 N3            -1.1773    -0.6978     0.0095 N.am    
   4 C4            -2.3549    -0.0473     0.0242 C.2     
   5 N5            -2.4022     1.2978     0.0314 N.am    
   6 C6            -1.2622     2.0179     0.0309 C.2     
   7 C7            -1.1576    -2.1627     0.0010 C.3     
   8 O8             0.2006    -2.6418     0.0193 O.3     
   9 C9             0.4862    -2.8055     1.4216 C.3     
  10 C10           -0.8466    -3.0730     2.0826 C.2     
  11 C11           -1.7989    -2.7006     1.2597 C.2     
  12 O12           -1.3041     3.2350     0.0374 O.2     
  13 C13            1.2725     2.1272     0.0013 C.3     
  14 O14           -3.3911    -0.6835     0.0306 O.2     
  15 C15            1.4287    -3.9919     1.6338 C.3     
  16 O16            2.7031    -3.6967     1.0587 O.3     
  17 H17            0.9431    -0.5339    -0.0101 H       
  18 H18           -3.2598     1.7510     0.0417 H       
  19 H19           -1.6781    -2.5405    -0.8791 H       
  20 H20            0.9299    -1.8949     1.8241 H       
  21 H21           -0.9908    -3.4982     3.0649 H       
  22 H22           -2.8600    -2.7672     1.4495 H       
  23 H23            1.5734     2.3210    -1.0282 H       
  24 H24            1.1268     3.0738     0.5217 H       
  25 H25            2.0494     1.5517     0.5047 H       
  26 H26            1.5459    -4.1764     2.7016 H       
  27 H27            1.0109    -4.8779     1.1557 H       
  28 H28            3.3526    -4.4065     1.1561 H       
@<TRIPOS>BOND
   1    1    2 2
   2    1   13 1
   3    1    6 1
   4    2    3 1
   5    2   17 1
   6    3    4 am
   7    3    7 1
   8    4    5 am
   9    4   14 2
  10    5    6 am
  11    5   18 1
  12    6   12 2
  13    7    8 1
  14    7   11 1
  15    7   19 1
  16    8    9 1
  17    9   10 1
  18    9   15 1
  19    9   20 1
  20   10   11 2
  21   10   21 1
  22   11   22 1
  23   13   23 1
  24   13   24 1
  25   13   25 1
  26   15   16 1
  27   15   26 1
  28   15   27 1
  29   16   28 1

#	End of record

