#	Name: ASD01940503
#	Creating user name:	WinNT
#	Creation time:	15. 06. 2019 20:12

#	Modifying user name:	WinNT
#	Modification time:	15. 06. 2019 20:12

#	Program:	/corina/corina34_cracker 3.40 0067  02.08.2006

@<TRIPOS>MOLECULE
ASD01940503
  32   33    0    0    0
SMALL
NO_CHARGES


@<TRIPOS>ATOM
   1 C1             0.0486     0.2315    -2.0375 C.2     
   2 C2            -0.0866    -0.6124    -0.8514 C.ar    
   3 C3            -1.2390    -0.5227    -0.0448 C.ar    
   4 C4            -1.3563    -1.3279     1.0765 C.ar    
   5 C5            -0.3435    -2.2180     1.4031 C.ar    
   6 C6             0.7966    -2.3101     0.6103 C.ar    
   7 C7             0.9285    -1.5218    -0.5118 C.ar    
   8 O8             0.9971     0.0862    -2.7808 O.2     
   9 N9            -2.5639    -1.2379     1.9278 N.pl3   
  10 O10           -3.4971    -1.9986     1.7433 O.2     
  11 O11           -2.6244    -0.4033     2.8128 O.2     
  12 O12           -0.4650    -3.0035     2.5027 O.3     
  13 C13            0.6132    -3.8984     2.7832 C.3     
  14 N14           -2.2513     0.3683    -0.3721 N.pl3   
  15 C15           -3.3175    -0.0489    -1.1760 C.ar    
  16 C16           -4.3323     0.8437    -1.5068 C.ar    
  17 C17           -5.3841     0.4273    -2.3013 C.ar    
  18 C18           -5.4275    -0.8751    -2.7668 C.ar    
  19 C19           -4.4201    -1.7639    -2.4387 C.ar    
  20 C20           -3.3626    -1.3527    -1.6500 C.ar    
  21 I21           -7.0233    -1.5021    -3.9706 I       
  22 F22           -4.2899     2.1151    -1.0519 F       
  23 F23            2.0349    -1.6193    -1.2810 F       
  24 H24           -0.6978     0.9812    -2.2547 H       
  25 H25            1.5796    -3.0057     0.8736 H       
  26 H26            0.3889    -4.4657     3.6865 H       
  27 H27            0.7430    -4.5844     1.9461 H       
  28 H28            1.5300    -3.3277     2.9308 H       
  29 H29           -2.2196     1.2804    -0.0436 H       
  30 H30           -6.1727     1.1189    -2.5587 H       
  31 H31           -4.4575    -2.7798    -2.8035 H       
  32 H32           -2.5742    -2.0467    -1.3986 H       
@<TRIPOS>BOND
   1    1    2 1
   2    1    8 2
   3    1   24 1
   4    2    3 ar
   5    2    7 ar
   6    3    4 ar
   7    3   14 1
   8    4    5 ar
   9    4    9 1
  10    5    6 ar
  11    5   12 1
  12    6    7 ar
  13    6   25 1
  14    7   23 1
  15    9   10 2
  16    9   11 2
  17   12   13 1
  18   13   26 1
  19   13   27 1
  20   13   28 1
  21   14   15 1
  22   14   29 1
  23   15   16 ar
  24   15   20 ar
  25   16   17 ar
  26   16   22 1
  27   17   18 ar
  28   17   30 1
  29   18   19 ar
  30   18   21 1
  31   19   20 ar
  32   19   31 1
  33   20   32 1

#	End of record

