#	Name: ASD03331100
#	Creating user name:	WinNT
#	Creation time:	15. 06. 2019 20:38

#	Modifying user name:	WinNT
#	Modification time:	15. 06. 2019 20:38

#	Program:	/corina/corina34_cracker 3.40 0067  02.08.2006

@<TRIPOS>MOLECULE
ASD03331100
  70   73    0    0    0
SMALL
NO_CHARGES


@<TRIPOS>ATOM
   1 N1            -0.0164     1.3557     0.0652 N.pl3   
   2 C2             0.0029    -0.0038     0.0363 C.2     
   3 C3             1.2396    -0.8638     0.0224 C.3     
   4 N4             2.1703    -0.3867     1.0572 N.3     
   5 C5             3.0625     0.6482     0.5315 C.3     
   6 C6             2.3511     1.5033    -0.5132 C.3     
   7 C7             1.1626     2.2241     0.1289 C.3     
   8 C8            -1.3235     1.7465     0.0361 C.2     
   9 N9            -2.0807     0.6747     0.0088 N.2     
  10 C10           -1.2922    -0.4229     0.0109 C.2     
  11 C11           -1.7519    -1.8226    -0.0108 C.2     
  12 O12           -0.9411    -2.7291    -0.0068 O.2     
  13 N13           -3.0710    -2.0984    -0.0351 N.am    
  14 C14            2.9368    -1.5012     1.6302 C.3     
  15 C15           -1.8064     3.1442     0.0359 C.ar    
  16 C16           -2.7908     3.5461    -0.8712 C.ar    
  17 C17           -3.2382     4.8532    -0.8662 C.ar    
  18 C18           -2.7125     5.7640     0.0353 C.ar    
  19 C19           -1.7351     5.3699     0.9371 C.ar    
  20 C20           -1.2852     4.0651     0.9452 C.ar    
  21 F21           -3.1530     7.0412     0.0359 F       
  22 F22           -3.3034     2.6584    -1.7514 F       
  23 Cl23          -1.0812     6.5186     2.0625 Cl      
  24 C24           -3.5280    -3.4901    -0.0567 C.3     
  25 C25           -3.5911    -4.0285     1.3741 C.3     
  26 C26           -4.0684    -5.4820     1.3515 C.3     
  27 C27           -2.2000    -3.9583     2.0072 C.3     
  28 C28           -4.5679    -3.1836     2.1943 C.3     
  29 O29           -5.3096    -4.4490    -1.5992 O.3     
  30 C30           -4.8982    -3.5592    -0.6803 C.2     
  31 N31           -5.9014    -2.7678    -0.4267 N.2     
  32 N32           -6.9133    -3.1192    -1.1395 N.2     
  33 C33           -6.5901    -4.1468    -1.8721 C.2     
  34 C34           -7.4874    -4.8644    -2.8472 C.3     
  35 C35           -7.9531    -3.8857    -3.9271 C.3     
  36 C36           -6.7162    -6.0139    -3.4991 C.3     
  37 C37           -8.7038    -5.4222    -2.1056 C.3     
  38 H38            0.9660    -1.8987     0.2277 H       
  39 H39            1.7174    -0.7992    -0.9551 H       
  40 H40            3.3934     1.2860     1.3512 H       
  41 H41            3.9312     0.1740     0.0748 H       
  42 H42            3.0476     2.2395    -0.9144 H       
  43 H43            1.9942     0.8653    -1.3217 H       
  44 H44            0.9630     3.1498    -0.4108 H       
  45 H45            1.3927     2.4503     1.1701 H       
  46 H46           -3.7176    -1.3755    -0.0382 H       
  47 H47            3.4551    -2.0336     0.8327 H       
  48 H48            3.6658    -1.1131     2.3415 H       
  49 H49            2.2582    -2.1840     2.1415 H       
  50 H50           -3.9988     5.1655    -1.5665 H       
  51 H51           -0.5276     3.7587     1.6513 H       
  52 H52           -2.8321    -4.0921    -0.6410 H       
  53 H53           -3.3725    -6.0839     0.7672 H       
  54 H54           -4.1134    -5.8655     2.3708 H       
  55 H55           -5.0595    -5.5319     0.9005 H       
  56 H56           -1.8599    -2.9229     2.0233 H       
  57 H57           -2.2449    -4.3419     3.0265 H       
  58 H58           -1.5041    -4.5603     1.4228 H       
  59 H59           -5.5590    -3.2336     1.7433 H       
  60 H60           -4.6129    -3.5671     3.2136 H       
  61 H61           -4.2279    -2.1481     2.2104 H       
  62 H62           -7.0865    -3.4883    -4.4555 H       
  63 H63           -8.6021    -4.4048    -4.6324 H       
  64 H64           -8.5025    -3.0668    -3.4627 H       
  65 H65           -6.3844    -6.7112    -2.7297 H       
  66 H66           -7.3652    -6.5330    -4.2044 H       
  67 H67           -5.8496    -5.6166    -4.0274 H       
  68 H68           -9.2532    -4.6033    -1.6412 H       
  69 H69           -9.3528    -5.9413    -2.8109 H       
  70 H70           -8.3720    -6.1195    -1.3362 H       
@<TRIPOS>BOND
   1    1    2 1
   2    1    7 1
   3    1    8 1
   4    2    3 1
   5    2   10 2
   6    3    4 1
   7    3   38 1
   8    3   39 1
   9    4    5 1
  10    4   14 1
  11    5    6 1
  12    5   40 1
  13    5   41 1
  14    6    7 1
  15    6   42 1
  16    6   43 1
  17    7   44 1
  18    7   45 1
  19    8    9 2
  20    8   15 1
  21    9   10 1
  22   10   11 1
  23   11   12 2
  24   11   13 am
  25   13   24 1
  26   13   46 1
  27   14   47 1
  28   14   48 1
  29   14   49 1
  30   15   16 ar
  31   15   20 ar
  32   16   17 ar
  33   16   22 1
  34   17   18 ar
  35   17   50 1
  36   18   19 ar
  37   18   21 1
  38   19   20 ar
  39   19   23 1
  40   20   51 1
  41   24   25 1
  42   24   30 1
  43   24   52 1
  44   25   26 1
  45   25   27 1
  46   25   28 1
  47   26   53 1
  48   26   54 1
  49   26   55 1
  50   27   56 1
  51   27   57 1
  52   27   58 1
  53   28   59 1
  54   28   60 1
  55   28   61 1
  56   29   30 1
  57   29   33 1
  58   30   31 2
  59   31   32 1
  60   32   33 2
  61   33   34 1
  62   34   35 1
  63   34   37 1
  64   34   36 1
  65   35   62 1
  66   35   63 1
  67   35   64 1
  68   36   65 1
  69   36   66 1
  70   36   67 1
  71   37   68 1
  72   37   69 1
  73   37   70 1

#	End of record

