#	Name: ASD04590052
#	Creating user name:	WinNT
#	Creation time:	15. 06. 2019 20:50

#	Modifying user name:	WinNT
#	Modification time:	15. 06. 2019 20:50

#	Program:	/corina/corina34_cracker 3.40 0067  02.08.2006

@<TRIPOS>MOLECULE
ASD04590052
  55   57    0    0    0
SMALL
NO_CHARGES


@<TRIPOS>ATOM
   1 C1            -0.1236     1.3284    -0.1872 C.3     
   2 C2             0.0477    -0.1769     0.0426 C.3     
   3 C3             0.9137    -0.7446    -1.0842 C.3     
   4 C4             2.2462    -0.0374    -1.1041 C.2     
   5 C5             2.3559     1.2501    -0.7134 C.2     
   6 C6             1.2351     1.9697    -0.2634 C.2     
   7 N7             3.3481    -0.7318    -1.5261 N.pl3   
   8 C8             4.6064    -0.3025    -1.2084 C.2     
   9 C9             4.8167     0.9701    -0.8300 C.2     
  10 C10            3.6881     1.9556    -0.7518 C.3     
  11 O11            1.3661     3.1309     0.0695 O.2     
  12 C12            3.7351     2.8585    -1.9574 C.ar    
  13 C13            3.8845     4.2230    -1.7937 C.ar    
  14 C14            3.9276     5.0512    -2.8996 C.ar    
  15 C15            3.8216     4.5149    -4.1693 C.ar    
  16 C16            3.6730     3.1504    -4.3331 C.ar    
  17 C17            3.6344     2.3217    -3.2273 C.ar    
  18 C18            5.7656    -1.2626    -1.2822 C.3     
  19 C19            6.1270     1.3882    -0.4996 C.2     
  20 O20            7.0102     1.6766    -1.4784 O.3     
  21 O21            6.4578     1.4878     0.6671 O.2     
  22 C22            8.3156     2.0927    -1.0723 C.3     
  23 C23            0.7340    -0.4165     1.3889 C.3     
  24 C24            9.1696     2.3732    -2.3104 C.3     
  25 C25            5.8625    -2.0469     0.0279 C.3     
  26 C26           -1.3223    -0.8579     0.0309 C.3     
  27 N27            3.8667     5.4019    -5.3535 N.pl3   
  28 O28            3.9972     6.6042    -5.2092 O.2     
  29 O29            3.7733     4.9294    -6.4722 O.2     
  30 H30           -0.6591     1.4961    -1.1217 H       
  31 H31           -0.6858     1.7620     0.6399 H       
  32 H32            1.0710    -1.8105    -0.9192 H       
  33 H33            0.4098    -0.5961    -2.0392 H       
  34 H34            3.2348    -1.5362    -2.0561 H       
  35 H35            3.8006     2.5577     0.1498 H       
  36 H36            3.9673     4.6420    -0.8017 H       
  37 H37            4.0436     6.1173    -2.7717 H       
  38 H38            3.5898     2.7314    -5.3250 H       
  39 H39            3.5183     1.2556    -3.3552 H       
  40 H40            5.6116    -1.9552    -2.1097 H       
  41 H41            6.6890    -0.7058    -1.4416 H       
  42 H42            8.2376     2.9990    -0.4718 H       
  43 H43            8.7808     1.3040    -0.4811 H       
  44 H44            0.1235     0.0044     2.1879 H       
  45 H45            0.8545    -1.4878     1.5496 H       
  46 H46            1.7127     0.0632     1.3883 H       
  47 H47            9.2475     1.4669    -2.9109 H       
  48 H48            8.7043     3.1619    -2.9017 H       
  49 H49           10.1653     2.6906    -2.0007 H       
  50 H50            6.7010    -2.7413    -0.0255 H       
  51 H51            6.0165    -1.3543     0.8554 H       
  52 H52            4.9391    -2.6037     0.1872 H       
  53 H53           -1.8026    -0.6913    -0.9333 H       
  54 H54           -1.1974    -1.9283     0.1946 H       
  55 H55           -1.9429    -0.4392     0.8231 H       
@<TRIPOS>BOND
   1    1    2 1
   2    1    6 1
   3    1   30 1
   4    1   31 1
   5    2    3 1
   6    2   23 1
   7    2   26 1
   8    3    4 1
   9    3   32 1
  10    3   33 1
  11    4    5 2
  12    4    7 1
  13    5    6 1
  14    5   10 1
  15    6   11 2
  16    7    8 1
  17    7   34 1
  18    8    9 2
  19    8   18 1
  20    9   10 1
  21    9   19 1
  22   10   12 1
  23   10   35 1
  24   12   13 ar
  25   12   17 ar
  26   13   14 ar
  27   13   36 1
  28   14   15 ar
  29   14   37 1
  30   15   16 ar
  31   15   27 1
  32   16   17 ar
  33   16   38 1
  34   17   39 1
  35   18   25 1
  36   18   40 1
  37   18   41 1
  38   19   20 1
  39   19   21 2
  40   20   22 1
  41   22   24 1
  42   22   42 1
  43   22   43 1
  44   23   44 1
  45   23   45 1
  46   23   46 1
  47   24   47 1
  48   24   48 1
  49   24   49 1
  50   25   50 1
  51   25   51 1
  52   25   52 1
  53   26   53 1
  54   26   54 1
  55   26   55 1
  56   27   28 2
  57   27   29 2

#	End of record

