#	Name: ASD03092914
#	Creating user name:	WinNT
#	Creation time:	15. 06. 2019 20:33

#	Modifying user name:	WinNT
#	Modification time:	15. 06. 2019 20:33

#	Program:	/corina/corina34_cracker 3.40 0067  02.08.2006

@<TRIPOS>MOLECULE
ASD03092914
  56   59    0    0    0
SMALL
NO_CHARGES


@<TRIPOS>ATOM
   1 C1            -0.4882     1.4525     0.0421 C.3     
   2 C2            -0.2053    -0.0274     0.0157 C.2     
   3 C3            -0.0913    -0.8395    -1.1413 C.2     
   4 C4            -0.2253    -0.4023    -2.5300 C.2     
   5 O5            -1.3250    -0.3225    -3.0377 O.2     
   6 C6             1.0018    -0.0508    -3.3311 C.3     
   7 C7             0.5986     0.2501    -4.7760 C.3     
   8 C8             0.2048     1.7176    -5.0128 C.3     
   9 C9             0.9570     1.6216    -6.3506 C.3     
  10 C10            1.7944     0.5025    -5.7094 C.3     
  11 C11            0.1738    -2.1379    -0.6985 C.2     
  12 C12            0.3710    -3.3246    -1.5521 C.ar    
  13 C13           -0.4874    -3.5660    -2.6280 C.ar    
  14 C14           -0.2966    -4.6773    -3.4221 C.ar    
  15 C15            0.7417    -5.5525    -3.1553 C.ar    
  16 C16            1.5958    -5.3199    -2.0915 C.ar    
  17 C17            1.4207    -4.2097    -1.2923 C.ar    
  18 S18            0.9769    -6.9703    -4.1747 S.o2    
  19 N19            1.9925    -6.5264    -5.4051 N.am    
  20 O20            1.6887    -7.9161    -3.3885 O.2     
  21 O21           -0.2816    -7.2474    -4.7734 O.2     
  22 N22            0.2179    -2.1115     0.6621 N.pl3   
  23 C23            0.4712    -3.2670     1.5264 C.3     
  24 C24           -0.0069    -0.8269     1.0948 C.2     
  25 C25           -0.0324    -0.3874     2.5063 C.ar    
  26 C26           -0.7130    -1.1423     3.4629 C.ar    
  27 C27           -0.7333    -0.7272     4.7782 C.ar    
  28 C28           -0.0806     0.4360     5.1502 C.ar    
  29 Cl29          -0.1106     0.9520     6.8075 Cl      
  30 C30            0.5963     1.1891     4.2057 C.ar    
  31 C31            0.6289     0.7808     2.8885 C.ar    
  32 H32            0.4517     2.0012     0.1018 H       
  33 H33           -1.0181     1.7374    -0.8668 H       
  34 H34           -1.1030     1.6895     0.9105 H       
  35 H35            1.4799     0.8272    -2.8969 H       
  36 H36            1.6984    -0.8890    -3.3153 H       
  37 H37           -0.1212    -0.4660    -5.1725 H       
  38 H38           -0.8688     1.8689    -5.1254 H       
  39 H39            0.6591     2.4112    -4.3052 H       
  40 H40            0.3344     1.2816    -7.1782 H       
  41 H41            1.5336     2.5145    -6.5924 H       
  42 H42            2.6833     0.8639    -5.1923 H       
  43 H43            2.0042    -0.3273    -6.3844 H       
  44 H44           -1.2985    -2.8842    -2.8370 H       
  45 H45           -0.9592    -4.8652    -4.2540 H       
  46 H46            2.4037    -6.0074    -1.8891 H       
  47 H47            2.0905    -4.0272    -0.4650 H       
  48 H48            2.3321    -5.6189    -5.4501 H       
  49 H49            2.2477    -7.1738    -6.0808 H       
  50 H50            1.5426    -3.3596     1.7043 H       
  51 H51           -0.0444    -3.1297     2.4769 H       
  52 H52            0.1040    -4.1712     1.0410 H       
  53 H53           -1.2230    -2.0493     3.1738 H       
  54 H54           -1.2596    -1.3104     5.5193 H       
  55 H55            1.1033     2.0956     4.5016 H       
  56 H56            1.1612     1.3664     2.1535 H       
@<TRIPOS>BOND
   1    1    2 1
   2    1   32 1
   3    1   33 1
   4    1   34 1
   5    2   24 2
   6    2    3 1
   7    3    4 1
   8    3   11 2
   9    4    5 2
  10    4    6 1
  11    6    7 1
  12    6   35 1
  13    6   36 1
  14    7   10 1
  15    7    8 1
  16    7   37 1
  17    8    9 1
  18    8   38 1
  19    8   39 1
  20    9   10 1
  21    9   40 1
  22    9   41 1
  23   10   42 1
  24   10   43 1
  25   11   12 1
  26   11   22 1
  27   12   17 ar
  28   12   13 ar
  29   13   14 ar
  30   13   44 1
  31   14   15 ar
  32   14   45 1
  33   15   16 ar
  34   15   18 1
  35   16   17 ar
  36   16   46 1
  37   17   47 1
  38   18   19 am
  39   18   20 2
  40   18   21 2
  41   19   48 1
  42   19   49 1
  43   22   23 1
  44   22   24 1
  45   23   50 1
  46   23   51 1
  47   23   52 1
  48   24   25 1
  49   25   31 ar
  50   25   26 ar
  51   26   27 ar
  52   26   53 1
  53   27   28 ar
  54   27   54 1
  55   28   29 1
  56   28   30 ar
  57   30   31 ar
  58   30   55 1
  59   31   56 1

#	End of record

