#	Name: ASD01328026
#	Creating user name:	WinNT
#	Creation time:	15. 06. 2019 19:16

#	Modifying user name:	WinNT
#	Modification time:	15. 06. 2019 19:16

#	Program:	/corina/corina34_cracker 3.40 0067  02.08.2006

@<TRIPOS>MOLECULE
ASD01328026
  43   44    0    0    0
SMALL
NO_CHARGES


@<TRIPOS>ATOM
   1 C1            -0.0753     1.4775     0.1841 C.2     
   2 C2            -0.0456    -0.0290     0.1588 C.3     
   3 C3             1.4061    -0.5097     0.1092 C.3     
   4 C4             1.4363    -2.0392     0.0836 C.3     
   5 O5             0.9585     2.1025     0.1644 O.2     
   6 O6            -1.2505     2.1250     0.2229 O.3     
   7 O7             2.7921    -2.4882     0.0372 O.3     
   8 C8             2.9967    -3.8321     0.0095 C.ar    
   9 C9             4.2886    -4.3359    -0.0359 C.ar    
  10 C10            4.4971    -5.7014    -0.0636 C.ar    
  11 C11            3.4122    -6.5697    -0.0458 C.ar    
  12 C12            2.1206    -6.0642    -0.0004 C.ar    
  13 C13            1.9141    -4.6986     0.0325 C.ar    
  14 N14            3.6224    -7.9555    -0.0743 N.am    
  15 C15            2.6678    -8.7719    -0.5629 C.2     
  16 O16            1.5968    -8.3146    -0.9111 O.2     
  17 N17            2.9009   -10.0954    -0.6654 N.am    
  18 C18            1.9463   -10.9119    -1.1540 C.2     
  19 C19            2.2016   -12.3616    -1.2662 C.ar    
  20 C20            1.2135   -13.2114    -1.7726 C.ar    
  21 C21            1.4594   -14.5658    -1.8751 C.ar    
  22 C22            2.6812   -15.0823    -1.4777 C.ar    
  23 C23            3.6638   -14.2448    -0.9751 C.ar    
  24 C24            3.4332   -12.8895    -0.8724 C.ar    
  25 O25            0.8755   -10.4547    -1.5021 O.2     
  26 Cl26           2.9828   -16.7868    -1.6091 Cl      
  27 Cl27          -0.3187   -12.5649    -2.2706 Cl      
  28 Cl28           6.1134    -6.3322    -0.1210 Cl      
  29 H29           -0.5263    -0.4170     1.0569 H       
  30 H30           -0.5776    -0.3882    -0.7221 H       
  31 H31            1.8868    -0.1217    -0.7889 H       
  32 H32            1.9381    -0.1505     0.9901 H       
  33 H33            0.9556    -2.4272     0.9816 H       
  34 H34            0.9042    -2.3984    -0.7974 H       
  35 H35           -1.2189     3.0914     0.2378 H       
  36 H36            5.1313    -3.6606    -0.0500 H       
  37 H37            1.2769    -6.7384     0.0130 H       
  38 H38            0.9090    -4.3056     0.0724 H       
  39 H39            4.4548    -8.3267     0.2576 H       
  40 H40            3.7556   -10.4603    -0.3875 H       
  41 H41            0.6974   -15.2239    -2.2657 H       
  42 H42            4.6144   -14.6543    -0.6666 H       
  43 H43            4.2019   -12.2377    -0.4843 H       
@<TRIPOS>BOND
   1    1    2 1
   2    1    5 2
   3    1    6 1
   4    2    3 1
   5    2   29 1
   6    2   30 1
   7    3    4 1
   8    3   31 1
   9    3   32 1
  10    4    7 1
  11    4   33 1
  12    4   34 1
  13    6   35 1
  14    7    8 1
  15    8    9 ar
  16    8   13 ar
  17    9   10 ar
  18    9   36 1
  19   10   11 ar
  20   10   28 1
  21   11   12 ar
  22   11   14 1
  23   12   13 ar
  24   12   37 1
  25   13   38 1
  26   14   15 am
  27   14   39 1
  28   15   16 2
  29   15   17 am
  30   17   18 am
  31   17   40 1
  32   18   19 1
  33   18   25 2
  34   19   20 ar
  35   19   24 ar
  36   20   21 ar
  37   20   27 1
  38   21   22 ar
  39   21   41 1
  40   22   23 ar
  41   22   26 1
  42   23   24 ar
  43   23   42 1
  44   24   43 1

#	End of record

