#	Name: ASD05170034
#	Creating user name:	WinNT
#	Creation time:	15. 06. 2019 20:57

#	Modifying user name:	WinNT
#	Modification time:	15. 06. 2019 20:57

#	Program:	/corina/corina34_cracker 3.40 0067  02.08.2006

@<TRIPOS>MOLECULE
ASD05170034
  41   45    0    0    0
SMALL
NO_CHARGES


@<TRIPOS>ATOM
   1 C1            -0.0178     1.4608     0.0101 C.3     
   2 N2             0.0021    -0.0041     0.0020 N.am    
   3 C3             0.0054    -0.6581    -1.1688 C.2     
   4 O4            -0.0067    -0.0201    -2.2051 O.2     
   5 C5             0.0236    -2.1198    -1.2310 C.2     
   6 C6             0.7151    -2.8606    -2.1721 C.2     
   7 C7             0.4790    -4.2085    -1.8893 C.2     
   8 C8            -0.3322    -4.2696    -0.8083 C.2     
   9 N9            -0.6193    -3.0020    -0.3979 N.pl3   
  10 C10           -1.4423    -2.6977     0.6963 C.ar    
  11 C11           -2.5521    -3.4974     0.9403 C.ar    
  12 C12           -3.3813    -3.2230     2.0238 C.ar    
  13 C13           -3.0926    -2.1458     2.8598 C.ar    
  14 C14           -1.9903    -1.3551     2.6082 C.ar    
  15 C15           -1.1670    -1.6254     1.5275 C.ar    
  16 C16            0.0240    -0.7308     1.2704 C.3     
  17 C17            1.3844    -1.1854     1.8042 C.3     
  18 C18            0.6497    -0.0240     2.4764 C.3     
  19 C19           -4.5679    -4.0732     2.2876 C.ar    
  20 C20           -5.3949    -3.7869     3.3714 C.ar    
  21 C21           -6.4987    -4.5882     3.6060 C.ar    
  22 C22           -6.7396    -5.6529     2.7463 C.ar    
  23 F23           -7.8064    -6.4588     2.9402 F       
  24 C24           -5.8747    -5.8791     1.6879 C.ar    
  25 N25           -4.8349    -5.0962     1.4861 N.ar    
  26 H26            1.0048     1.8381     0.0023 H       
  27 H27           -0.5450     1.8219    -0.8730 H       
  28 H28           -0.5280     1.8123     0.9069 H       
  29 H29            1.3231    -2.4705    -2.9749 H       
  30 H30            0.8739    -5.0517    -2.4365 H       
  31 H31           -0.6939    -5.1761    -0.3458 H       
  32 H32           -2.7712    -4.3311     0.2896 H       
  33 H33           -3.7314    -1.9300     3.7035 H       
  34 H34           -1.7682    -0.5210     3.2573 H       
  35 H35            1.4233    -2.1337     2.3401 H       
  36 H36            2.2646    -0.9460     1.2076 H       
  37 H37            1.0463     0.9794     2.3217 H       
  38 H38            0.2049    -0.2083     3.4543 H       
  39 H39           -5.1776    -2.9511     4.0199 H       
  40 H40           -7.1576    -4.3907     4.4387 H       
  41 H41           -6.0579    -6.7054     1.0171 H       
@<TRIPOS>BOND
   1    1    2 1
   2    1   26 1
   3    1   27 1
   4    1   28 1
   5    2   16 1
   6    2    3 am
   7    3    4 2
   8    3    5 1
   9    5    9 1
  10    5    6 2
  11    6    7 1
  12    6   29 1
  13    7    8 2
  14    7   30 1
  15    8    9 1
  16    8   31 1
  17    9   10 1
  18   10   15 ar
  19   10   11 ar
  20   11   12 ar
  21   11   32 1
  22   12   13 ar
  23   12   19 1
  24   13   14 ar
  25   13   33 1
  26   14   15 ar
  27   14   34 1
  28   15   16 1
  29   16   18 1
  30   16   17 1
  31   17   18 1
  32   17   35 1
  33   17   36 1
  34   18   37 1
  35   18   38 1
  36   19   25 ar
  37   19   20 ar
  38   20   21 ar
  39   20   39 1
  40   21   22 ar
  41   21   40 1
  42   22   23 1
  43   22   24 ar
  44   24   25 ar
  45   24   41 1

#	End of record

