#	Name: ASD02500747
#	Creating user name:	WinNT
#	Creation time:	15. 06. 2019 20:23

#	Modifying user name:	WinNT
#	Modification time:	15. 06. 2019 20:23

#	Program:	/corina/corina34_cracker 3.40 0067  02.08.2006

@<TRIPOS>MOLECULE
ASD02500747
  48   51    0    0    0
SMALL
NO_CHARGES


@<TRIPOS>ATOM
   1 N1            -0.0179     1.4654     0.0101 N.am    
   2 C2             0.0021    -0.0041     0.0020 C.3     
   3 C3             0.8261    -0.4764    -1.2022 C.3     
   4 N4             2.1040     0.2493    -1.2105 N.am    
   5 C5             2.0841     1.7188    -1.2024 C.3     
   6 C6             1.2601     2.1912     0.0018 C.3     
   7 S7             3.5407    -0.5740    -1.2281 S.o2    
   8 O8             4.5153     0.3081    -0.6883 O.2     
   9 O9             3.2726    -1.8605    -0.6876 O.2     
  10 O10            4.9957    -1.4369    -6.8736 O.3     
  11 C11            4.6648    -1.2239    -5.5707 C.ar    
  12 C12            5.0892    -0.0786    -4.9069 C.ar    
  13 O13            5.8413     0.8586    -5.5461 O.3     
  14 C14            6.4799     0.4515    -6.7612 C.3     
  15 C15            5.4505    -0.3003    -7.6161 C.3     
  16 C16            4.7441     0.1162    -3.5782 C.ar    
  17 C17            3.9775    -0.8248    -2.9166 C.ar    
  18 C18            3.5534    -1.9623    -3.5772 C.ar    
  19 C19            3.8954    -2.1635    -4.9014 C.ar    
  20 S20           -1.4546     2.2888     0.0214 S.o2    
  21 O21           -1.1840     3.5755    -0.5173 O.2     
  22 O22           -2.4267     1.4070    -0.5232 O.2     
  23 C23           -1.8991     2.5390     1.7080 C.ar    
  24 C24           -2.1935     1.4524     2.5147 C.ar    
  25 C25           -2.5422     1.6492     3.8395 C.ar    
  26 C26           -2.5963     2.9322     4.3567 C.ar    
  27 C27           -2.3016     4.0169     3.5483 C.ar    
  28 C28           -1.9484     3.8188     2.2267 C.ar    
  29 F29           -2.9370     3.1258     5.6497 F       
  30 F30           -2.1407     0.2009     2.0086 F       
  31 H31            0.4576    -0.3688     0.9227 H       
  32 H32           -1.0165    -0.3833    -0.0803 H       
  33 H33            1.0139    -1.5469    -1.1197 H       
  34 H34            0.2810    -0.2679    -2.1228 H       
  35 H35            3.1027     2.0980    -1.1201 H       
  36 H36            1.6286     2.0836    -2.1231 H       
  37 H37            1.0723     3.2617    -0.0807 H       
  38 H38            1.8051     1.9827     0.9224 H       
  39 H39            6.8358     1.3289    -7.3013 H       
  40 H40            7.3190    -0.2058    -6.5331 H       
  41 H41            5.9150    -0.6301    -8.5453 H       
  42 H42            4.6081     0.3549    -7.8380 H       
  43 H43            5.0744     1.0041    -3.0596 H       
  44 H44            2.9541    -2.6955    -3.0579 H       
  45 H45            3.5627    -3.0532    -5.4154 H       
  46 H46           -2.7722     0.8025     4.4693 H       
  47 H47           -2.3438     5.0179     3.9516 H       
  48 H48           -1.7147     4.6652     1.5979 H       
@<TRIPOS>BOND
   1    1    2 1
   2    1    6 1
   3    1   20 am
   4    2    3 1
   5    2   31 1
   6    2   32 1
   7    3    4 1
   8    3   33 1
   9    3   34 1
  10    4    5 1
  11    4    7 am
  12    5    6 1
  13    5   35 1
  14    5   36 1
  15    6   37 1
  16    6   38 1
  17    7    8 2
  18    7    9 2
  19    7   17 1
  20   10   11 1
  21   10   15 1
  22   11   12 ar
  23   11   19 ar
  24   12   13 1
  25   12   16 ar
  26   13   14 1
  27   14   15 1
  28   14   39 1
  29   14   40 1
  30   15   41 1
  31   15   42 1
  32   16   17 ar
  33   16   43 1
  34   17   18 ar
  35   18   19 ar
  36   18   44 1
  37   19   45 1
  38   20   21 2
  39   20   22 2
  40   20   23 1
  41   23   24 ar
  42   23   28 ar
  43   24   25 ar
  44   24   30 1
  45   25   26 ar
  46   25   46 1
  47   26   27 ar
  48   26   29 1
  49   27   28 ar
  50   27   47 1
  51   28   48 1

#	End of record

