#	Name: ASD01001182
#	Creating user name:	WinNT
#	Creation time:	15. 06. 2019 18:55

#	Modifying user name:	WinNT
#	Modification time:	15. 06. 2019 18:55

#	Program:	/corina/corina34_cracker 3.40 0067  02.08.2006

@<TRIPOS>MOLECULE
ASD01001182
  51   54    0    0    0
SMALL
NO_CHARGES


@<TRIPOS>ATOM
   1 C1            -0.0167     1.3775     0.0096 C.ar    
   2 C2             1.2779     2.1490     0.0014 C.3     
   3 C3             1.6094     2.6221     1.4196 C.3     
   4 N4             2.3745     1.2780    -0.4459 N.pl3   
   5 C5             0.4482     3.4313     1.9907 C.3     
   6 C6             2.8828     3.4635     1.3830 C.3     
   7 C7             3.6949     1.6669    -0.1944 C.ar    
   8 C8             0.2872     4.7299     1.1948 C.3     
   9 C9             3.9803     2.7059     0.6778 C.ar    
  10 O10            2.6421     4.6827     0.6760 O.3     
  11 C11            4.7305     0.9937    -0.8337 C.ar    
  12 C12            1.6115     5.4989     1.2331 C.3     
  13 C13            5.2967     3.0636     0.9109 C.ar    
  14 C14            6.0412     1.3575    -0.5972 C.ar    
  15 C15            6.3237     2.3919     0.2757 C.ar    
  16 C16            7.7546     2.7875     0.5349 C.3     
  17 C17            8.0680     2.6216     2.0233 C.3     
  18 C18            8.6873     1.8941    -0.2853 C.3     
  19 C19            7.9612     4.2484     0.1300 C.3     
  20 C20           -1.1651     1.9491    -0.5038 C.ar    
  21 C21           -2.3531     1.2417    -0.4959 C.ar    
  22 C22           -2.3934    -0.0378     0.0254 C.ar    
  23 C23           -1.2457    -0.6118     0.5391 C.ar    
  24 C24           -0.0544     0.0934     0.5265 C.ar    
  25 F25            1.0680    -0.4668     1.0280 F       
  26 H26            1.1919     3.0080    -0.6641 H       
  27 H27            1.7883     1.7543     2.0544 H       
  28 H28            2.1856     0.4463    -0.9080 H       
  29 H29           -0.4696     2.8474     1.9221 H       
  30 H30            0.6500     3.6685     3.0353 H       
  31 H31            3.1963     3.6919     2.4017 H       
  32 H32            0.0304     4.4958     0.1616 H       
  33 H33           -0.5007     5.3367     1.6409 H       
  34 H34            4.5093     0.1856    -1.5152 H       
  35 H35            1.5177     6.4154     0.6507 H       
  36 H36            1.8599     5.7455     2.2654 H       
  37 H37            5.5221     3.8712     1.5916 H       
  38 H38            6.8452     0.8342    -1.0933 H       
  39 H39            7.9208     1.5808     2.3117 H       
  40 H40            9.1029     2.9077     2.2107 H       
  41 H41            7.4035     3.2580     2.6076 H       
  42 H42            8.4640     2.0123    -1.3457 H       
  43 H43            9.7222     2.1802    -0.0979 H       
  44 H44            8.5401     0.8533     0.0031 H       
  45 H45            7.2967     4.8848     0.7143 H       
  46 H46            8.9961     4.5345     0.3175 H       
  47 H47            7.7379     4.3666    -0.9303 H       
  48 H48           -1.1349     2.9489    -0.9111 H       
  49 H49           -3.2503     1.6894    -0.8971 H       
  50 H50           -3.3220    -0.5891     0.0317 H       
  51 H51           -1.2775    -1.6114     0.9467 H       
@<TRIPOS>BOND
   1    1   20 ar
   2    1    2 1
   3    1   24 ar
   4    2    3 1
   5    2    4 1
   6    2   26 1
   7    3    5 1
   8    3    6 1
   9    3   27 1
  10    4    7 1
  11    4   28 1
  12    5    8 1
  13    5   29 1
  14    5   30 1
  15    6    9 1
  16    6   10 1
  17    6   31 1
  18    7    9 ar
  19    7   11 ar
  20    8   12 1
  21    8   32 1
  22    8   33 1
  23    9   13 ar
  24   10   12 1
  25   11   14 ar
  26   11   34 1
  27   12   35 1
  28   12   36 1
  29   13   15 ar
  30   13   37 1
  31   14   15 ar
  32   14   38 1
  33   15   16 1
  34   16   17 1
  35   16   18 1
  36   16   19 1
  37   17   39 1
  38   17   40 1
  39   17   41 1
  40   18   42 1
  41   18   43 1
  42   18   44 1
  43   19   45 1
  44   19   46 1
  45   19   47 1
  46   20   21 ar
  47   20   48 1
  48   21   22 ar
  49   21   49 1
  50   22   23 ar
  51   22   50 1
  52   23   24 ar
  53   23   51 1
  54   24   25 1

#	End of record

