#	Name: ASD05740088
#	Creating user name:	WinNT
#	Creation time:	15. 06. 2019 21:02

#	Modifying user name:	WinNT
#	Modification time:	15. 06. 2019 21:02

#	Program:	/corina/corina34_cracker 3.40 0067  02.08.2006

@<TRIPOS>MOLECULE
ASD05740088
  49   52    0    0    0
SMALL
NO_CHARGES


@<TRIPOS>ATOM
   1 C1            -0.0184     1.5028     0.0103 C.3     
   2 C2            -2.6605     1.2708    -2.1321 C.ar    
   3 C3             1.2422    -0.7052    -0.0136 C.2     
   4 C4             1.2253    -2.0887    -0.0201 C.2     
   5 C5             0.0021    -0.0041     0.0020 C.2     
   6 C6            -1.1618    -0.7045     0.0098 C.2     
   7 C7            -1.1260    -2.1083     0.0024 C.2     
   8 O8             0.0470    -2.7569    -0.0118 O.3     
   9 C9            -2.4830     0.0202     0.0268 C.3     
  10 C10           -2.9970     0.1608    -1.3828 C.ar    
  11 C11           -3.8057    -0.8218    -1.9244 C.ar    
  12 O12           -2.1683    -2.7412     0.0098 O.2     
  13 C13           -3.1348     1.3996    -3.4315 C.ar    
  14 C14           -3.9459     0.4105    -3.9727 C.ar    
  15 C15           -4.2791    -0.6970    -3.2175 C.ar    
  16 N16           -2.7963     2.5211    -4.1922 N.am    
  17 S17           -3.9588     3.3062    -5.0723 S.o2    
  18 O18           -3.3136     4.4073    -5.6972 O.2     
  19 O19           -4.6601     2.3038    -5.7953 O.2     
  20 S20            2.8740    -2.7054    -0.0387 S.3     
  21 C21            3.5509    -1.0884    -0.0373 C.2     
  22 C22            2.5963    -0.1719    -0.0181 C.2     
  23 O23            4.8809    -0.8124    -0.0479 O.3     
  24 C24            5.7465    -1.8541    -0.0609 C.ar    
  25 N25            7.0476    -1.6123    -0.0714 N.ar    
  26 N26            5.2706    -3.0891    -0.0574 N.ar    
  27 C27            6.0879    -4.1291    -0.0693 C.ar    
  28 C28            7.4569    -3.9126    -0.0857 C.ar    
  29 C29            7.9204    -2.6064    -0.0838 C.ar    
  30 N30           -5.0398     3.9479    -3.9943 N.am    
  31 C31           -4.6129     4.9977    -3.0659 C.3     
  32 H32            1.0042     1.8801     0.0026 H       
  33 H33           -0.5455     1.8639    -0.8728 H       
  34 H34           -0.5286     1.8543     0.9071 H       
  35 H35           -2.0329     2.0401    -1.7069 H       
  36 H36           -3.2006    -0.5463     0.6204 H       
  37 H37           -2.3493     1.0092     0.4651 H       
  38 H38           -4.0677    -1.6888    -1.3361 H       
  39 H39           -4.3157     0.5072    -4.9828 H       
  40 H40           -4.9097    -1.4665    -3.6376 H       
  41 H41           -1.8803     2.8400    -4.2050 H       
  42 H42            2.8056     0.8877    -0.0143 H       
  43 H43            5.6935    -5.1345    -0.0660 H       
  44 H44            8.1470    -4.7432    -0.0957 H       
  45 H45            8.9809    -2.4026    -0.0962 H       
  46 H46           -5.9556     3.6287    -3.9776 H       
  47 H47           -5.4546     5.2927    -2.4392 H       
  48 H48           -3.8063     4.6207    -2.4371 H       
  49 H49           -4.2603     5.8607    -3.6306 H       
@<TRIPOS>BOND
   1    1    5 1
   2    1   32 1
   3    1   33 1
   4    1   34 1
   5    2   10 ar
   6    2   13 ar
   7    2   35 1
   8    3    4 2
   9    3    5 1
  10    3   22 1
  11    4   20 1
  12    4    8 1
  13    5    6 2
  14    6    7 1
  15    6    9 1
  16    7    8 1
  17    7   12 2
  18    9   10 1
  19    9   36 1
  20    9   37 1
  21   10   11 ar
  22   11   15 ar
  23   11   38 1
  24   13   14 ar
  25   13   16 1
  26   14   15 ar
  27   14   39 1
  28   15   40 1
  29   16   17 am
  30   16   41 1
  31   17   18 2
  32   17   19 2
  33   17   30 am
  34   20   21 1
  35   21   22 2
  36   21   23 1
  37   22   42 1
  38   23   24 1
  39   24   25 ar
  40   24   26 ar
  41   25   29 ar
  42   26   27 ar
  43   27   28 ar
  44   27   43 1
  45   28   29 ar
  46   28   44 1
  47   29   45 1
  48   30   31 1
  49   30   46 1
  50   31   47 1
  51   31   48 1
  52   31   49 1

#	End of record

