#	Name: ASD03331598
#	Creating user name:	WinNT
#	Creation time:	15. 06. 2019 20:39

#	Modifying user name:	WinNT
#	Modification time:	15. 06. 2019 20:39

#	Program:	/corina/corina34_cracker 3.40 0067  02.08.2006

@<TRIPOS>MOLECULE
ASD03331598
  66   68    0    0    0
SMALL
NO_CHARGES


@<TRIPOS>ATOM
   1 C1            -0.1052     0.8864     2.0676 C.ar    
   2 C2             0.0055    -0.5418     1.6988 C.2     
   3 N3            -0.9049    -1.5109     1.9844 N.pl3   
   4 C4            -0.4392    -2.6767     1.4767 C.2     
   5 C5             0.7540    -2.4134     0.8852 C.2     
   6 N6             0.9985    -1.0905     1.0338 N.2     
   7 C7             1.6220    -3.3887     0.2020 C.2     
   8 N8             2.7870    -2.9875    -0.3442 N.am    
   9 C9            -2.1820    -1.3721     2.7120 C.3     
  10 C10           -2.0560    -2.2046     3.9983 C.3     
  11 C11           -2.2729    -3.6709     3.7142 C.3     
  12 N12           -1.2147    -4.3615     3.0081 N.3     
  13 C13           -1.1600    -4.0084     1.5763 C.3     
  14 C14           -0.7841     1.2588     3.2281 C.ar    
  15 C15           -0.8841     2.5940     3.5680 C.ar    
  16 C16           -0.3108     3.5628     2.7564 C.ar    
  17 C17            0.3639     3.1961     1.6034 C.ar    
  18 C18            0.4739     1.8651     1.2589 C.ar    
  19 O19            1.2872    -4.5558     0.1311 O.2     
  20 C20            3.6499    -3.9571    -1.0234 C.3     
  21 C21           -1.3233    -5.8153     3.1881 C.3     
  22 C22           -2.4931    -4.3835     5.0500 C.3     
  23 C23            3.1935    -4.1171    -2.4749 C.3     
  24 C24            5.0748    -3.4671    -0.9960 C.2     
  25 C25            3.2410    -2.7587    -3.1772 C.3     
  26 C26            4.1213    -5.0968    -3.1962 C.3     
  27 C27            1.7618    -4.6560    -2.5029 C.3     
  28 N28            6.0888    -4.3318    -1.1977 N.am    
  29 O29            5.3091    -2.2947    -0.7924 O.2     
  30 C30            7.4755    -3.8775    -1.0685 C.3     
  31 F31           -0.4115     4.8677     3.0917 F       
  32 F32           -1.5410     2.9570     4.6913 F       
  33 C33            8.4230    -5.0463    -1.3463 C.3     
  34 F34            9.7473    -4.6124    -1.2229 F       
  35 H35            3.0540    -2.0567    -0.2876 H       
  36 H36           -2.3564    -0.3255     2.9615 H       
  37 H37           -3.0013    -1.7518     2.1015 H       
  38 H38           -1.0605    -2.0647     4.4196 H       
  39 H39           -2.8002    -1.8654     4.7189 H       
  40 H40           -3.1875    -3.7688     3.1294 H       
  41 H41           -2.1700    -3.9156     1.1771 H       
  42 H42           -0.6098    -4.7715     1.0257 H       
  43 H43           -1.2308     0.5048     3.8593 H       
  44 H44            0.8080     3.9539     0.9749 H       
  45 H45            1.0003     1.5812     0.3596 H       
  46 H46            3.5866    -4.9189    -0.5145 H       
  47 H47           -2.3219    -6.1435     2.8997 H       
  48 H48           -0.5823    -6.3150     2.5641 H       
  49 H49           -1.1463    -6.0662     4.2339 H       
  50 H50           -3.2879    -3.8823     5.6025 H       
  51 H51           -2.7760    -5.4201     4.8665 H       
  52 H52           -1.5723    -4.3559     5.6327 H       
  53 H53            4.2609    -2.3748    -3.1573 H       
  54 H54            2.9158    -2.8727    -4.2113 H       
  55 H55            2.5800    -2.0607    -2.6633 H       
  56 H56            4.0558    -6.0758    -2.7216 H       
  57 H57            3.8217    -5.1788    -4.2410 H       
  58 H58            5.1475    -4.7338    -3.1400 H       
  59 H59            1.1008    -3.9580    -1.9890 H       
  60 H60            1.4366    -4.7700    -3.5370 H       
  61 H61            1.7280    -5.6238    -2.0026 H       
  62 H62            5.9003    -5.2549    -1.4285 H       
  63 H63            7.6644    -3.0784    -1.7853 H       
  64 H64            7.6435    -3.5060    -0.0576 H       
  65 H65            8.2342    -5.8454    -0.6295 H       
  66 H66            8.2551    -5.4178    -2.3572 H       
@<TRIPOS>BOND
   1    1    2 1
   2    1   14 ar
   3    1   18 ar
   4    2    3 1
   5    2    6 2
   6    3    4 1
   7    3    9 1
   8    4    5 2
   9    4   13 1
  10    5    6 1
  11    5    7 1
  12    7    8 am
  13    7   19 2
  14    8   20 1
  15    8   35 1
  16    9   10 1
  17    9   36 1
  18    9   37 1
  19   10   11 1
  20   10   38 1
  21   10   39 1
  22   11   12 1
  23   11   22 1
  24   11   40 1
  25   12   13 1
  26   12   21 1
  27   13   41 1
  28   13   42 1
  29   14   15 ar
  30   14   43 1
  31   15   16 ar
  32   15   32 1
  33   16   17 ar
  34   16   31 1
  35   17   18 ar
  36   17   44 1
  37   18   45 1
  38   20   23 1
  39   20   24 1
  40   20   46 1
  41   21   47 1
  42   21   48 1
  43   21   49 1
  44   22   50 1
  45   22   51 1
  46   22   52 1
  47   23   25 1
  48   23   26 1
  49   23   27 1
  50   24   28 am
  51   24   29 2
  52   25   53 1
  53   25   54 1
  54   25   55 1
  55   26   56 1
  56   26   57 1
  57   26   58 1
  58   27   59 1
  59   27   60 1
  60   27   61 1
  61   28   30 1
  62   28   62 1
  63   30   33 1
  64   30   63 1
  65   30   64 1
  66   33   34 1
  67   33   65 1
  68   33   66 1

#	End of record

