#	Name: ASD02560041
#	Creating user name:	WinNT
#	Creation time:	15. 06. 2019 20:24

#	Modifying user name:	WinNT
#	Modification time:	15. 06. 2019 20:24

#	Program:	/corina/corina34_cracker 3.40 0067  02.08.2006

@<TRIPOS>MOLECULE
ASD02560041
  38   39    0    0    0
SMALL
NO_CHARGES


@<TRIPOS>ATOM
   1 C1            -0.0169     1.3977     0.0097 C.2     
   2 C2             0.0021    -0.0041     0.0020 C.2     
   3 C3             1.1838    -0.6637    -0.0128 C.2     
   4 N4             2.3580     0.0177    -0.0204 N.am    
   5 C5             2.3727     1.3642    -0.0128 C.2     
   6 C6             1.1638     2.0806     0.0021 C.2     
   7 C7             1.1964    -2.1706    -0.0205 C.3     
   8 C8            -1.2923    -0.7758     0.0107 C.3     
   9 C9            -1.7804    -0.9367     1.4518 C.3     
  10 O10            3.4365     1.9627    -0.0190 O.2     
  11 C11            1.1718     3.5876     0.0106 C.3     
  12 O12           -0.1728     4.0710     0.0255 O.3     
  13 C13           -0.2781     5.4961     0.0345 C.3     
  14 C14           -1.7320     5.8924     0.0499 C.ar    
  15 C15           -2.3880     6.0673     1.2540 C.ar    
  16 C16           -3.7217     6.4307     1.2680 C.ar    
  17 C17           -4.3991     6.6197     0.0780 C.ar    
  18 C18           -3.7428     6.4457    -1.1261 C.ar    
  19 C19           -2.4080     6.0865    -1.1402 C.ar    
  20 H20           -0.9561     1.9310     0.0171 H       
  21 H21            3.1959    -0.4709    -0.0310 H       
  22 H22            1.1894    -2.5288    -1.0500 H       
  23 H23            2.0943    -2.5291     0.4828 H       
  24 H24            0.3145    -2.5440     0.5000 H       
  25 H25           -2.0413    -0.2357    -0.5684 H       
  26 H26           -1.1317    -1.7595    -0.4305 H       
  27 H27           -2.7166    -1.4950     1.4581 H       
  28 H28           -1.0314    -1.4769     2.0310 H       
  29 H29           -1.9410     0.0469     1.8930 H       
  30 H30            1.6955     3.9431     0.8980 H       
  31 H31            1.6796     3.9533    -0.8819 H       
  32 H32            0.2156     5.8913     0.9224 H       
  33 H33            0.1996     5.9014    -0.8575 H       
  34 H34           -1.8587     5.9197     2.1837 H       
  35 H35           -4.2344     6.5667     2.2088 H       
  36 H36           -5.4413     6.9030     0.0889 H       
  37 H37           -4.2722     6.5930    -2.0559 H       
  38 H38           -1.8953     5.9505    -2.0809 H       
@<TRIPOS>BOND
   1    1    2 1
   2    1    6 2
   3    1   20 1
   4    2    3 2
   5    2    8 1
   6    3    4 1
   7    3    7 1
   8    4    5 am
   9    4   21 1
  10    5    6 1
  11    5   10 2
  12    6   11 1
  13    7   22 1
  14    7   23 1
  15    7   24 1
  16    8    9 1
  17    8   25 1
  18    8   26 1
  19    9   27 1
  20    9   28 1
  21    9   29 1
  22   11   12 1
  23   11   30 1
  24   11   31 1
  25   12   13 1
  26   13   14 1
  27   13   32 1
  28   13   33 1
  29   14   15 ar
  30   14   19 ar
  31   15   16 ar
  32   15   34 1
  33   16   17 ar
  34   16   35 1
  35   17   18 ar
  36   17   36 1
  37   18   19 ar
  38   18   37 1
  39   19   38 1

#	End of record

