#	Name: ASD01810355
#	Creating user name:	WinNT
#	Creation time:	15. 06. 2019 19:24

#	Modifying user name:	WinNT
#	Modification time:	15. 06. 2019 19:24

#	Program:	/corina/corina34_cracker 3.40 0067  02.08.2006

@<TRIPOS>MOLECULE
ASD01810355
  43   45    0    0    0
SMALL
NO_CHARGES


@<TRIPOS>ATOM
   1 C1             0.0055     1.2588    -0.1304 C.3     
   2 O2            -0.0139    -0.1701    -0.1264 O.3     
   3 C3            -1.2325    -0.7705    -0.0884 C.ar    
   4 C4            -1.3251    -2.1547    -0.0823 C.ar    
   5 C5            -2.5650    -2.7627    -0.0436 C.ar    
   6 C6            -3.7130    -1.9928    -0.0110 C.ar    
   7 C7            -3.6234    -0.6131    -0.0174 C.ar    
   8 C8            -2.3857    -0.0003    -0.0498 C.ar    
   9 C9            -5.0643    -2.6586     0.0312 C.3     
  10 N10           -5.4607    -2.8711     1.4254 N.pl3   
  11 C11           -6.1671    -1.9103     2.0879 C.2     
  12 C12           -6.2428    -1.9010     3.4294 C.2     
  13 C13           -6.9975    -0.8892     4.0620 C.2     
  14 O14           -7.4830     0.0107     3.4018 O.2     
  15 O15           -7.1807    -0.9200     5.3989 O.3     
  16 C16           -5.5540    -2.9279     4.2786 C.3     
  17 C17           -5.1523    -4.1256     3.4624 C.ar    
  18 C18           -5.1205    -4.0602     2.0751 C.ar    
  19 C19           -4.7433    -5.1736     1.3347 C.ar    
  20 C20           -4.4025    -6.3463     1.9791 C.ar    
  21 C21           -4.4371    -6.4110     3.3603 C.ar    
  22 C22           -4.8148    -5.3060     4.0996 C.ar    
  23 O23           -4.3869    -2.3463     4.8631 O.3     
  24 C24           -4.1093    -2.8062     6.1873 C.3     
  25 H25            1.0375     1.6081    -0.1622 H       
  26 H26           -0.5299     1.6270    -1.0055 H       
  27 H27           -0.4764     1.6312     0.7736 H       
  28 H28           -0.4287    -2.7565    -0.1081 H       
  29 H29           -2.6377    -3.8402    -0.0393 H       
  30 H30           -4.5216    -0.0139     0.0074 H       
  31 H31           -2.3161     1.0774    -0.0547 H       
  32 H32           -5.7986    -2.0220    -0.4624 H       
  33 H33           -5.0124    -3.6188    -0.4822 H       
  34 H34           -6.6750    -1.1423     1.5234 H       
  35 H35           -7.7102    -0.1864     5.7404 H       
  36 H36           -6.2294    -3.2465     5.0726 H       
  37 H37           -4.7169    -5.1221     0.2563 H       
  38 H38           -4.1095    -7.2128     1.4049 H       
  39 H39           -4.1718    -7.3293     3.8631 H       
  40 H40           -4.8398    -5.3623     5.1778 H       
  41 H41           -3.1662    -2.3802     6.5296 H       
  42 H42           -4.9122    -2.4952     6.8557 H       
  43 H43           -4.0378    -3.8938     6.1867 H       
@<TRIPOS>BOND
   1    1    2 1
   2    1   25 1
   3    1   26 1
   4    1   27 1
   5    2    3 1
   6    3    4 ar
   7    3    8 ar
   8    4    5 ar
   9    4   28 1
  10    5    6 ar
  11    5   29 1
  12    6    7 ar
  13    6    9 1
  14    7    8 ar
  15    7   30 1
  16    8   31 1
  17    9   10 1
  18    9   32 1
  19    9   33 1
  20   10   11 1
  21   10   18 1
  22   11   12 2
  23   11   34 1
  24   12   13 1
  25   12   16 1
  26   13   14 2
  27   13   15 1
  28   15   35 1
  29   16   17 1
  30   16   23 1
  31   16   36 1
  32   17   18 ar
  33   17   22 ar
  34   18   19 ar
  35   19   20 ar
  36   19   37 1
  37   20   21 ar
  38   20   38 1
  39   21   22 ar
  40   21   39 1
  41   22   40 1
  42   23   24 1
  43   24   41 1
  44   24   42 1
  45   24   43 1

#	End of record

