#	Name: ASD01912368
#	Creating user name:	WinNT
#	Creation time:	15. 06. 2019 19:59

#	Modifying user name:	WinNT
#	Modification time:	15. 06. 2019 19:59

#	Program:	/corina/corina34_cracker 3.40 0067  02.08.2006

@<TRIPOS>MOLECULE
ASD01912368
  48   51    0    0    0
SMALL
NO_CHARGES


@<TRIPOS>ATOM
   1 C1            -0.1004     1.3393     0.0989 C.ar    
   2 C2            -0.0890    -0.0581     0.1362 C.ar    
   3 C3             1.1239    -0.7207     0.0932 C.ar    
   4 C4             2.2886     0.0314     0.0141 C.ar    
   5 C5             2.2058     1.4115    -0.0192 C.ar    
   6 N6             1.0390     2.0211     0.0230 N.ar    
   7 C7             3.4685     2.2295    -0.1050 C.3     
   8 C8            -1.3479     2.0414     0.1365 C.1     
   9 C9            -2.3707     2.6170     0.1674 C.1     
  10 C10           -3.6182     3.3191     0.2051 C.2     
  11 N11           -3.6144     7.1974     1.2120 N.am    
  12 C12           -4.8686     6.4442     1.3401 C.3     
  13 C13           -4.9419     5.4111     0.2085 C.3     
  14 C14           -3.6344     4.6509     0.1697 C.2     
  15 C15           -2.3458     5.4396     0.0892 C.3     
  16 C16           -2.3376     6.4719     1.2238 C.3     
  17 C17           -3.6352     8.5385     1.0796 C.2     
  18 O18           -2.5943     9.1665     1.0895 O.2     
  19 N19           -7.0183     9.5843     0.6572 N.pl3   
  20 N20           -6.1064     8.6859     0.7639 N.2     
  21 C21           -4.9230     9.2454     0.9225 C.2     
  22 C22           -5.1130    10.6437     0.9145 C.2     
  23 C23           -6.4598    10.8274     0.7436 C.2     
  24 O24           -6.6030    13.3366     0.7541 O.3     
  25 C25           -7.1686    12.1167     0.6681 C.2     
  26 C26           -8.5093    12.2831     0.4992 C.2     
  27 C27           -8.7470    13.6716     0.4848 C.2     
  28 C28           -7.5543    14.2785     0.6437 C.2     
  29 H29           -1.0140    -0.6120     0.1982 H       
  30 H30            1.1645    -1.7996     0.1208 H       
  31 H31            3.2510    -0.4573    -0.0207 H       
  32 H32            3.7213     2.3989    -1.1517 H       
  33 H33            3.3151     3.1878     0.3914 H       
  34 H34            4.2825     1.6937     0.3832 H       
  35 H35           -4.5458     2.7691     0.2622 H       
  36 H36           -4.8915     5.9337     2.3029 H       
  37 H37           -5.7145     7.1276     1.2663 H       
  38 H38           -5.7632     4.7194     0.3958 H       
  39 H39           -5.0992     5.9194    -0.7428 H       
  40 H40           -1.4959     4.7662     0.1996 H       
  41 H41           -2.2876     5.9503    -0.8720 H       
  42 H42           -1.5172     7.1737     1.0734 H       
  43 H43           -2.2152     5.9631     2.1799 H       
  44 H44           -7.9632     9.4060     0.5300 H       
  45 H45           -4.3568    11.4073     1.0209 H       
  46 H46           -9.2477    11.5018     0.3959 H       
  47 H47           -9.7042    14.1579     0.3679 H       
  48 H48           -7.3904    15.3455     0.6765 H       
@<TRIPOS>BOND
   1    1    2 ar
   2    1    6 ar
   3    1    8 1
   4    2    3 ar
   5    2   29 1
   6    3    4 ar
   7    3   30 1
   8    4    5 ar
   9    4   31 1
  10    5    6 ar
  11    5    7 1
  12    7   32 1
  13    7   33 1
  14    7   34 1
  15    8    9 3
  16    9   10 1
  17   10   14 2
  18   10   35 1
  19   11   12 1
  20   11   16 1
  21   11   17 am
  22   12   13 1
  23   12   36 1
  24   12   37 1
  25   13   14 1
  26   13   38 1
  27   13   39 1
  28   14   15 1
  29   15   16 1
  30   15   40 1
  31   15   41 1
  32   16   42 1
  33   16   43 1
  34   17   18 2
  35   17   21 1
  36   19   20 1
  37   19   23 1
  38   19   44 1
  39   20   21 2
  40   21   22 1
  41   22   23 2
  42   22   45 1
  43   23   25 1
  44   24   25 1
  45   24   28 1
  46   25   26 2
  47   26   27 1
  48   26   46 1
  49   27   28 2
  50   27   47 1
  51   28   48 1

#	End of record

