#	Name: ASD00840127
#	Creating user name:	WinNT
#	Creation time:	15. 06. 2019 18:37

#	Modifying user name:	WinNT
#	Modification time:	15. 06. 2019 18:37

#	Program:	/corina/corina34_cracker 3.40 0067  02.08.2006

@<TRIPOS>MOLECULE
ASD00840127
  91   96    0    0    0
SMALL
NO_CHARGES


@<TRIPOS>ATOM
   1 N1             0.0958     1.3298     0.1212 N.3     
   2 C2             0.1981    -0.1285     0.2709 C.3     
   3 C3             0.9803    -0.7063    -0.9110 C.3     
   4 N4             2.3135    -0.0901    -0.9610 N.3     
   5 C5             2.2112     1.3682    -1.1106 C.3     
   6 C6             1.4290     1.9460     0.0712 C.3     
   7 N7            -2.1918     5.0752     3.0607 N.am    
   8 C8            -2.1927     3.7764     2.7164 C.2     
   9 C9            -0.8889     3.1842     3.2076 C.3     
  10 C10           -0.1824     4.3466     3.8666 C.ar    
  11 C11            1.0339     4.4639     4.5017 C.ar    
  12 C12            1.4274     5.6857     5.0203 C.ar    
  13 C13            0.5938     6.7865     4.8974 C.ar    
  14 C14           -0.6265     6.6692     4.2608 C.ar    
  15 C15           -1.0269     5.4417     3.7367 C.ar    
  16 O16           -3.0729     3.1888     2.1240 O.2     
  17 F17            0.9764     7.9794     5.4030 F       
  18 S18           -3.4276     6.1224     2.7163 S.o2    
  19 O19           -2.8616     7.4258     2.7192 O.2     
  20 O20           -4.1165     5.5767     1.5997 O.2     
  21 C21           -4.5524     6.0654     4.0713 C.ar    
  22 C22           -5.2457     4.8953     4.3482 C.ar    
  23 C23           -6.1305     4.8511     5.4144 C.ar    
  24 C24           -6.3206     5.9765     6.2017 C.ar    
  25 C25           -5.6251     7.1438     5.9208 C.ar    
  26 C26           -4.7393     7.1837     4.8607 C.ar    
  27 O27           -7.1876     5.9364     7.2473 O.3     
  28 C28           -7.3336     7.1326     8.0153 C.3     
  29 O29           -5.0576     3.7941     3.5745 O.3     
  30 C30           -5.8043     2.6250     3.9175 C.3     
  31 C31           -1.1507     2.0890     4.2092 C.ar    
  32 C32           -1.9749     1.0242     3.8742 C.ar    
  33 C33           -2.2139     0.0178     4.7983 C.ar    
  34 C34           -1.6311     0.0778     6.0496 C.ar    
  35 C35           -0.8108     1.1400     6.3811 C.ar    
  36 C36           -0.5660     2.1415     5.4594 C.ar    
  37 O37           -2.5473     0.9677     2.6429 O.3     
  38 C38           -3.3839    -0.1575     2.3675 C.3     
  39 C39           -3.9341    -0.0477     0.9440 C.3     
  40 F40           -4.6804     1.1293     0.8220 F       
  41 F41           -2.8717    -0.0227     0.0341 F       
  42 Cl42           2.9594     5.8386     5.8224 Cl      
  43 C43           -0.0778     2.6605     2.0506 C.2     
  44 O44            1.0966     2.9477     1.9541 O.2     
  45 N45           -0.6574     1.8731     1.1230 N.am    
  46 N46            5.5541    -1.9856    -2.8817 N.3     
  47 C47            5.3189    -0.5769    -3.2233 C.3     
  48 C48            4.4551     0.0745    -2.1409 C.3     
  49 C49            3.1235    -0.6743    -2.0383 C.3     
  50 C50            3.3984    -2.1487    -1.7297 C.3     
  51 C51            4.2929    -2.7356    -2.8240 C.3     
  52 C52            6.4931    -2.6065    -3.8255 C.3     
  53 H53            0.7173    -0.3632     1.2001 H       
  54 H54           -0.8014    -0.5629     0.2927 H       
  55 H55            1.0824    -1.7845    -0.7872 H       
  56 H56            0.4471    -0.4953    -1.8380 H       
  57 H57            3.2106     1.8026    -1.1325 H       
  58 H58            1.6920     1.6029    -2.0399 H       
  59 H59            1.3269     3.0242    -0.0525 H       
  60 H60            1.9622     1.7350     0.9982 H       
  61 H61            1.6799     3.6036     4.5955 H       
  62 H62           -1.2714     7.5306     4.1687 H       
  63 H63           -6.6712     3.9417     5.6312 H       
  64 H64           -5.7728     8.0207     6.5338 H       
  65 H65           -4.1956     8.0919     4.6464 H       
  66 H66           -8.0532     6.9643     8.8166 H       
  67 H67           -6.3704     7.4089     8.4441 H       
  68 H68           -7.6888     7.9369     7.3711 H       
  69 H69           -5.5512     2.3169     4.9319 H       
  70 H70           -6.8704     2.8448     3.8599 H       
  71 H71           -5.5609     1.8215     3.2223 H       
  72 H72           -2.8553    -0.8119     4.5400 H       
  73 H73           -1.8169    -0.7056     6.7694 H       
  74 H74           -0.3567     1.1855     7.3599 H       
  75 H75            0.0791     2.9678     5.7191 H       
  76 H76           -2.8024    -1.0746     2.4625 H       
  77 H77           -4.2116    -0.1771     3.0764 H       
  78 H78           -4.5723    -0.9060     0.7339 H       
  79 H79           -1.6093     1.6921     1.1667 H       
  80 H80            6.2735    -0.0549    -3.2891 H       
  81 H81            4.8054    -0.5167    -4.1829 H       
  82 H82            4.9741     0.0269    -1.1836 H       
  83 H83            4.2677     1.1159    -2.4026 H       
  84 H84            2.5860    -0.5931    -2.9831 H       
  85 H85            3.9008    -2.2312    -0.7659 H       
  86 H86            2.4562    -2.6957    -1.6976 H       
  87 H87            3.7842    -2.6653    -3.7854 H       
  88 H88            4.5023    -3.7816    -2.5997 H       
  89 H89            7.4445    -2.0756    -3.7937 H       
  90 H90            6.6494    -3.6493    -3.5495 H       
  91 H91            6.0820    -2.5552    -4.8337 H       
@<TRIPOS>BOND
   1    1    2 1
   2    1    6 1
   3    1   45 1
   4    2    3 1
   5    2   53 1
   6    2   54 1
   7    3    4 1
   8    3   55 1
   9    3   56 1
  10    4    5 1
  11    4   49 1
  12    5    6 1
  13    5   57 1
  14    5   58 1
  15    6   59 1
  16    6   60 1
  17    7    8 am
  18    7   15 1
  19    7   18 am
  20    8    9 1
  21    8   16 2
  22    9   10 1
  23    9   31 1
  24    9   43 1
  25   10   11 ar
  26   10   15 ar
  27   11   12 ar
  28   11   61 1
  29   12   13 ar
  30   12   42 1
  31   13   14 ar
  32   13   17 1
  33   14   15 ar
  34   14   62 1
  35   18   19 2
  36   18   20 2
  37   18   21 1
  38   21   22 ar
  39   21   26 ar
  40   22   23 ar
  41   22   29 1
  42   23   24 ar
  43   23   63 1
  44   24   25 ar
  45   24   27 1
  46   25   26 ar
  47   25   64 1
  48   26   65 1
  49   27   28 1
  50   28   66 1
  51   28   67 1
  52   28   68 1
  53   29   30 1
  54   30   69 1
  55   30   70 1
  56   30   71 1
  57   31   32 ar
  58   31   36 ar
  59   32   33 ar
  60   32   37 1
  61   33   34 ar
  62   33   72 1
  63   34   35 ar
  64   34   73 1
  65   35   36 ar
  66   35   74 1
  67   36   75 1
  68   37   38 1
  69   38   39 1
  70   38   76 1
  71   38   77 1
  72   39   40 1
  73   39   41 1
  74   39   78 1
  75   43   44 2
  76   43   45 am
  77   45   79 1
  78   46   47 1
  79   46   51 1
  80   46   52 1
  81   47   48 1
  82   47   80 1
  83   47   81 1
  84   48   49 1
  85   48   82 1
  86   48   83 1
  87   49   50 1
  88   49   84 1
  89   50   51 1
  90   50   85 1
  91   50   86 1
  92   51   87 1
  93   51   88 1
  94   52   89 1
  95   52   90 1
  96   52   91 1

#	End of record

