#	Name: ASD08390031
#	Creating user name:	WinNT
#	Creation time:	15. 06. 2019 21:19

#	Modifying user name:	WinNT
#	Modification time:	15. 06. 2019 21:19

#	Program:	/corina/corina34_cracker 3.40 0067  02.08.2006

@<TRIPOS>MOLECULE
ASD08390031
  55   58    0    0    0
SMALL
NO_CHARGES


@<TRIPOS>ATOM
   1 N1             0.0355     1.3917    -0.3925 N.2     
   2 C2             0.0770    -0.0716    -0.2664 C.3     
   3 C3             1.4837    -0.3592     0.2951 C.3     
   4 N4             2.0777     0.9821     0.4221 N.pl3   
   5 C5             1.1553     1.9038    -0.0012 C.2     
   6 C6             3.4241     1.2807     0.9164 C.3     
   7 C7             1.3918    -1.0297     1.6415 C.ar    
   8 C8             1.4197     3.3609    -0.0094 C.ar    
   9 C9             1.0300     4.1370    -1.1005 C.ar    
  10 C10            1.2792     5.4942    -1.1023 C.ar    
  11 C11            1.9146     6.0851    -0.0248 C.ar    
  12 C12            2.3039     5.3203     1.0602 C.ar    
  13 C13            2.0543     3.9633     1.0766 C.ar    
  14 C14            1.5491    -2.4019     1.7633 C.ar    
  15 C15            1.1535    -0.2885     2.7888 C.ar    
  16 C16            1.0757    -0.9380     4.0062 C.ar    
  17 N17            1.2254    -2.2458     4.0837 N.ar    
  18 C18            1.4582    -2.9818     3.0145 C.ar    
  19 C19            4.4141     1.1500    -0.2123 C.ar    
  20 C20            4.6450     2.2200    -1.0565 C.ar    
  21 C21            5.5530     2.1001    -2.0919 C.ar    
  22 C22            6.2304     0.9103    -2.2828 C.ar    
  23 C23            6.0002    -0.1594    -1.4380 C.ar    
  24 C24            5.0954    -0.0381    -0.4000 C.ar    
  25 C25           -0.9985    -0.5566     0.7076 C.3     
  26 C26           -0.0969    -0.7229    -1.6143 C.2     
  27 O27            0.5111    -1.7326    -1.8803 O.2     
  28 O28           -0.9271    -0.1812    -2.5193 O.3     
  29 C29           -2.0283    -0.1034    -4.6899 C.3     
  30 C30           -1.0452    -0.8622    -3.7962 C.3     
  31 H31            2.0583    -0.9699    -0.4014 H       
  32 H32            3.4505     2.2980     1.3069 H       
  33 H33            3.6835     0.5800     1.7101 H       
  34 H34            0.5345     3.6767    -1.9425 H       
  35 H35            0.9778     6.0963    -1.9467 H       
  36 H36            2.1078     7.1476    -0.0309 H       
  37 H37            2.7999     5.7872     1.8983 H       
  38 H38            2.3541     3.3682     1.9265 H       
  39 H39            1.7400    -3.0099     0.8914 H       
  40 H40            1.0307     0.7830     2.7318 H       
  41 H41            0.8904    -0.3678     4.9045 H       
  42 H42            1.5754    -4.0505     3.1173 H       
  43 H43            4.1157     3.1495    -0.9073 H       
  44 H44            5.7328     2.9358    -2.7519 H       
  45 H45            6.9393     0.8164    -3.0921 H       
  46 H46            6.5292    -1.0890    -1.5874 H       
  47 H47            4.9155    -0.8738     0.2600 H       
  48 H48           -1.9829    -0.2833     0.3275 H       
  49 H49           -0.9359    -1.6401     0.8081 H       
  50 H50           -0.8432    -0.0919     1.6813 H       
  51 H51           -1.6638     0.9111    -4.8515 H       
  52 H52           -2.1169    -0.6146    -5.6485 H       
  53 H53           -3.0044    -0.0660    -4.2064 H       
  54 H54           -0.0690    -0.8996    -4.2797 H       
  55 H55           -1.4097    -1.8767    -3.6346 H       
@<TRIPOS>BOND
   1    1    2 1
   2    1    5 2
   3    2    3 1
   4    2   25 1
   5    2   26 1
   6    3    4 1
   7    3    7 1
   8    3   31 1
   9    4    5 1
  10    4    6 1
  11    5    8 1
  12    6   19 1
  13    6   32 1
  14    6   33 1
  15    7   14 ar
  16    7   15 ar
  17    8    9 ar
  18    8   13 ar
  19    9   10 ar
  20    9   34 1
  21   10   11 ar
  22   10   35 1
  23   11   12 ar
  24   11   36 1
  25   12   13 ar
  26   12   37 1
  27   13   38 1
  28   14   18 ar
  29   14   39 1
  30   15   16 ar
  31   15   40 1
  32   16   17 ar
  33   16   41 1
  34   17   18 ar
  35   18   42 1
  36   19   20 ar
  37   19   24 ar
  38   20   21 ar
  39   20   43 1
  40   21   22 ar
  41   21   44 1
  42   22   23 ar
  43   22   45 1
  44   23   24 ar
  45   23   46 1
  46   24   47 1
  47   25   48 1
  48   25   49 1
  49   25   50 1
  50   26   27 2
  51   26   28 1
  52   28   30 1
  53   29   30 1
  54   29   51 1
  55   29   52 1
  56   29   53 1
  57   30   54 1
  58   30   55 1

#	End of record

