#	Name: ASD03091599
#	Creating user name:	WinNT
#	Creation time:	15. 06. 2019 20:31

#	Modifying user name:	WinNT
#	Modification time:	15. 06. 2019 20:31

#	Program:	/corina/corina34_cracker 3.40 0067  02.08.2006

@<TRIPOS>MOLECULE
ASD03091599
  38   41    0    0    0
SMALL
NO_CHARGES


@<TRIPOS>ATOM
   1 C1            -0.0170     1.4025     0.0098 C.ar    
   2 C2             0.0021    -0.0041     0.0020 C.ar    
   3 C3             1.2242    -0.6679    -0.0132 C.ar    
   4 C4             2.3997     0.0517    -0.0201 C.ar    
   5 C5             2.3812     1.4420    -0.0120 C.ar    
   6 C6             1.1820     2.1204     0.0022 C.ar    
   7 O7            -1.2772    -0.4287     0.0124 O.3     
   8 C8            -2.1303     0.6167     0.0264 C.2     
   9 C9            -1.4297     1.7801     0.0311 C.2     
  10 C10           -3.5963     0.5119     0.0400 C.2     
  11 O11           -4.2780     1.5195     0.0517 O.2     
  12 N12           -4.1853    -0.7003     0.0393 N.am    
  13 N13           -6.8767    -1.9579     1.8283 N.3     
  14 C14           -6.1535    -0.7232     1.4956 C.3     
  15 C15           -5.6465    -0.8047     0.0528 C.3     
  16 C16           -6.0712    -2.1515    -0.5458 C.3     
  17 C17           -7.6010    -2.2501    -0.4923 C.3     
  18 C18           -8.0537    -2.1293     0.9655 C.3     
  19 C19           -5.9904    -3.1271     1.7470 C.3     
  20 C20           -5.4781    -3.2767     0.3117 C.3     
  21 Br21           1.2731    -2.5583    -0.0238 Br      
  22 F22            3.5437     2.1304    -0.0185 F       
  23 H23            3.3453    -0.4699    -0.0316 H       
  24 H24            1.1687     3.2003     0.0083 H       
  25 H25           -1.8341     2.7815     0.0420 H       
  26 H26           -3.6418    -1.5036     0.0300 H       
  27 H27           -6.8243     0.1298     1.5977 H       
  28 H28           -5.3073    -0.6038     2.1722 H       
  29 H29           -6.0781     0.0074    -0.5324 H       
  30 H30           -5.7264    -2.2288    -1.5769 H       
  31 H31           -8.0397    -1.4430    -1.0791 H       
  32 H32           -7.9193    -3.2116    -0.8951 H       
  33 H33           -8.5892    -3.0331     1.2561 H       
  34 H34           -8.7113    -1.2664     1.0718 H       
  35 H35           -5.1456    -2.9908     2.4222 H       
  36 H36           -6.5428    -4.0228     2.0311 H       
  37 H37           -5.7879    -4.2423    -0.0879 H       
  38 H38           -4.3903    -3.2078     0.3031 H       
@<TRIPOS>BOND
   1    1    2 ar
   2    1    6 ar
   3    1    9 1
   4    2    3 ar
   5    2    7 1
   6    3    4 ar
   7    3   21 1
   8    4    5 ar
   9    4   23 1
  10    5    6 ar
  11    5   22 1
  12    6   24 1
  13    7    8 1
  14    8    9 2
  15    8   10 1
  16    9   25 1
  17   10   11 2
  18   10   12 am
  19   12   15 1
  20   12   26 1
  21   13   14 1
  22   13   18 1
  23   13   19 1
  24   14   15 1
  25   14   27 1
  26   14   28 1
  27   15   16 1
  28   15   29 1
  29   16   17 1
  30   16   20 1
  31   16   30 1
  32   17   18 1
  33   17   31 1
  34   17   32 1
  35   18   33 1
  36   18   34 1
  37   19   20 1
  38   19   35 1
  39   19   36 1
  40   20   37 1
  41   20   38 1

#	End of record

