#	Name: ASD01410426
#	Creating user name:	WinNT
#	Creation time:	15. 06. 2019 19:17

#	Modifying user name:	WinNT
#	Modification time:	15. 06. 2019 19:17

#	Program:	/corina/corina34_cracker 3.40 0067  02.08.2006

@<TRIPOS>MOLECULE
ASD01410426
  44   47    0    0    0
SMALL
NO_CHARGES


@<TRIPOS>ATOM
   1 C1             2.4251     4.8502    -1.8971 C.ar    
   2 C2             2.7205     4.2845    -3.1240 C.ar    
   3 C3             3.6234     3.2408    -3.2073 C.ar    
   4 C4             4.2334     2.7606    -2.0645 C.ar    
   5 C5             3.9391     3.3266    -0.8325 C.ar    
   6 C6             3.0320     4.3738    -0.7516 C.ar    
   7 C7             2.7103     4.9914     0.5849 C.3     
   8 O8             4.5373     2.8559     0.2931 O.3     
   9 C9             5.4645     1.8709     0.1589 C.ar    
  10 C10            5.0913     0.5407     0.3302 C.ar    
  11 C11            6.0177    -0.4717     0.1980 C.ar    
  12 C12            7.3359    -0.1635    -0.1089 C.ar    
  13 C13            7.7162     1.1800    -0.2828 C.ar    
  14 C14            6.7725     2.1953    -0.1528 C.ar    
  15 F15            1.7777     6.0197     0.4111 F       
  16 F16            2.1759     4.0156     1.4330 F       
  17 F17            3.8787     5.5124     1.1512 F       
  18 N18            8.3008    -1.1425    -0.2513 N.pl3   
  19 C19            9.5691    -0.8120    -0.5485 C.2     
  20 N20            9.9704     0.4172    -0.7191 N.2     
  21 C21            9.1264     1.4603    -0.6073 C.2     
  22 O22            9.5172     2.6034    -0.7702 O.2     
  23 C23            7.9385    -2.5512    -0.0764 C.3     
  24 C24            7.6343    -3.1622    -1.4200 C.ar    
  25 C25            8.6642    -3.6399    -2.2122 C.ar    
  26 C26            8.3848    -4.2012    -3.4465 C.ar    
  27 C27            7.0755    -4.2850    -3.8883 C.ar    
  28 C28            6.0456    -3.8081    -3.0957 C.ar    
  29 C29            6.3246    -3.2508    -1.8595 C.ar    
  30 F30            5.3196    -2.7854    -1.0860 F       
  31 F31            6.8029    -4.8319    -5.0932 F       
  32 F32            9.9419    -3.5581    -1.7810 F       
  33 H33            1.7225     5.6681    -1.8353 H       
  34 H34            2.2448     4.6584    -4.0186 H       
  35 H35            3.8519     2.8003    -4.1666 H       
  36 H36            4.9384     1.9451    -2.1300 H       
  37 H37            4.0661     0.2994     0.5694 H       
  38 H38            5.7190    -1.5007     0.3331 H       
  39 H39            7.0610     3.2276    -0.2856 H       
  40 H40           10.2942    -1.6058    -0.6511 H       
  41 H41            8.7687    -3.0852     0.3860 H       
  42 H42            7.0588    -2.6235     0.5631 H       
  43 H43            9.1882    -4.5732    -4.0648 H       
  44 H44            5.0242    -3.8732    -3.4405 H       
@<TRIPOS>BOND
   1    1    2 ar
   2    1    6 ar
   3    1   33 1
   4    2    3 ar
   5    2   34 1
   6    3    4 ar
   7    3   35 1
   8    4    5 ar
   9    4   36 1
  10    5    6 ar
  11    5    8 1
  12    6    7 1
  13    7   15 1
  14    7   16 1
  15    7   17 1
  16    8    9 1
  17    9   10 ar
  18    9   14 ar
  19   10   11 ar
  20   10   37 1
  21   11   12 ar
  22   11   38 1
  23   12   13 ar
  24   12   18 1
  25   13   14 ar
  26   13   21 1
  27   14   39 1
  28   18   19 1
  29   18   23 1
  30   19   20 2
  31   19   40 1
  32   20   21 1
  33   21   22 2
  34   23   24 1
  35   23   41 1
  36   23   42 1
  37   24   25 ar
  38   24   29 ar
  39   25   26 ar
  40   25   32 1
  41   26   27 ar
  42   26   43 1
  43   27   28 ar
  44   27   31 1
  45   28   29 ar
  46   28   44 1
  47   29   30 1

#	End of record

