#	Name: ASD05490101
#	Creating user name:	WinNT
#	Creation time:	15. 06. 2019 21:01

#	Modifying user name:	WinNT
#	Modification time:	15. 06. 2019 21:01

#	Program:	/corina/corina34_cracker 3.40 0067  02.08.2006

@<TRIPOS>MOLECULE
ASD05490101
  65   69    0    0    0
SMALL
NO_CHARGES


@<TRIPOS>ATOM
   1 O1            -2.2665     1.8171     0.0253 O.2     
   2 N2            -0.0178     1.4608     0.0101 N.am    
   3 O3             4.5863     2.8160    -0.0274 O.3     
   4 N4             2.8511     4.3367    -0.0019 N.ar    
   5 C5             1.5540     4.6376     0.0121 C.ar    
   6 C6             3.2565     3.0770    -0.0133 C.ar    
   7 N7             2.4054     2.0644    -0.0102 N.ar    
   8 C8             1.0946     2.2826     0.0039 C.ar    
   9 C9             0.6266     3.5971     0.0154 C.ar    
  10 N10            1.1342     5.9598     0.0237 N.pl3   
  11 C11           -1.1223     2.2312     0.0189 C.2     
  12 N12           -0.7663     3.5310     0.0284 N.am    
  13 C13            5.4681     3.9405    -0.0289 C.3     
  14 C14            6.9178     3.4517    -0.0454 C.3     
  15 O15            7.1758     2.7674    -1.2731 O.3     
  16 C16            8.5094     2.2677    -1.3909 C.3     
  17 C17            0.0021    -0.0041     0.0020 C.3     
  18 C18            0.0225    -0.5140     1.4200 C.ar    
  19 C19           -1.1670    -0.7632     2.0791 C.ar    
  20 C20           -1.1538    -1.2316     3.3801 C.ar    
  21 C21            0.0632    -1.4521     4.0260 C.ar    
  22 C22            1.2576    -1.1984     3.3549 C.ar    
  23 C23            1.2315    -0.7362     2.0549 C.ar    
  24 C24            0.0853    -1.9541     5.4220 C.ar    
  25 C25            0.8788    -3.0488     5.7590 C.ar    
  26 C26           -0.6831    -1.3290     6.4022 C.ar    
  27 C27           -0.6588    -1.8002     7.6992 C.ar    
  28 C28            0.1268    -2.8905     8.0270 C.ar    
  29 C29            0.8955    -3.5116     7.0592 C.ar    
  30 C30            0.1495    -3.4001     9.4450 C.3     
  31 N31           -0.8998    -4.4135     9.6181 N.3     
  32 C32           -0.7586    -5.1045    10.9129 C.3     
  33 C33           -2.0899    -4.9275    11.6730 C.3     
  34 C34           -3.1048    -4.6344    10.5368 C.3     
  35 C35           -2.2437    -3.8006     9.5556 C.3     
  36 F36           -2.3163    -1.4747     4.0242 F       
  37 H37            1.7881     6.6762     0.0216 H       
  38 H38            0.1868     6.1678     0.0339 H       
  39 H39           -1.3727     4.2880     0.0359 H       
  40 H40            5.2796     4.5488    -0.9135 H       
  41 H41            5.2964     4.5381     0.8664 H       
  42 H42            7.5900     4.3052     0.0430 H       
  43 H43            7.0817     2.7720     0.7908 H       
  44 H44            9.2146     3.0966    -1.3305 H       
  45 H45            8.7062     1.5635    -0.5826 H       
  46 H46            8.6245     1.7620    -2.3496 H       
  47 H47           -0.8878    -0.3767    -0.5053 H       
  48 H48            0.8920    -0.3525    -0.5222 H       
  49 H49           -2.1078    -0.5915     1.5773 H       
  50 H50            2.2025    -1.3673     3.8500 H       
  51 H51            2.1572    -0.5399     1.5344 H       
  52 H52            1.4794    -3.5345     5.0041 H       
  53 H53           -1.2962    -0.4772     6.1475 H       
  54 H54           -1.2539    -1.3165     8.4596 H       
  55 H55            1.5070    -4.3625     7.3206 H       
  56 H56            1.1222    -3.8446     9.6558 H       
  57 H57           -0.0281    -2.5723    10.1315 H       
  58 H58           -0.5636    -6.1642    10.7484 H       
  59 H59            0.0563    -4.6594    11.4838 H       
  60 H60           -2.3567    -5.8429    12.2014 H       
  61 H61           -2.0307    -4.0861    12.3634 H       
  62 H62           -3.4452    -5.5584    10.0694 H       
  63 H63           -3.9485    -4.0523    10.9075 H       
  64 H64           -2.2017    -2.7601     9.8776 H       
  65 H65           -2.6458    -3.8699     8.5448 H       
@<TRIPOS>BOND
   1    1   11 2
   2    2   17 1
   3    2    8 1
   4    2   11 am
   5    3   13 1
   6    3    6 1
   7    4    5 ar
   8    4    6 ar
   9    5   10 1
  10    5    9 ar
  11    6    7 ar
  12    7    8 ar
  13    8    9 ar
  14    9   12 1
  15   10   37 1
  16   10   38 1
  17   11   12 am
  18   12   39 1
  19   13   14 1
  20   13   40 1
  21   13   41 1
  22   14   15 1
  23   14   42 1
  24   14   43 1
  25   15   16 1
  26   16   44 1
  27   16   45 1
  28   16   46 1
  29   17   18 1
  30   17   47 1
  31   17   48 1
  32   18   19 ar
  33   18   23 ar
  34   19   20 ar
  35   19   49 1
  36   20   21 ar
  37   20   36 1
  38   21   22 ar
  39   21   24 1
  40   22   23 ar
  41   22   50 1
  42   23   51 1
  43   24   25 ar
  44   24   26 ar
  45   25   29 ar
  46   25   52 1
  47   26   27 ar
  48   26   53 1
  49   27   28 ar
  50   27   54 1
  51   28   29 ar
  52   28   30 1
  53   29   55 1
  54   30   31 1
  55   30   56 1
  56   30   57 1
  57   31   32 1
  58   31   35 1
  59   32   33 1
  60   32   58 1
  61   32   59 1
  62   33   34 1
  63   33   60 1
  64   33   61 1
  65   34   35 1
  66   34   62 1
  67   34   63 1
  68   35   64 1
  69   35   65 1

#	End of record

