#	Name: ASD01885019
#	Creating user name:	WinNT
#	Creation time:	15. 06. 2019 19:49

#	Modifying user name:	WinNT
#	Modification time:	15. 06. 2019 19:49

#	Program:	/corina/corina34_cracker 3.40 0067  02.08.2006

@<TRIPOS>MOLECULE
ASD01885019
  47   51    0    0    0
SMALL
NO_CHARGES


@<TRIPOS>ATOM
   1 C1            -0.4386     1.2693     0.2465 C.3     
   2 C2            -0.1569    -0.2332     0.1831 C.3     
   3 H3            -1.0905    -0.7837     0.2986 H       
   4 C4             0.4750    -0.5774    -1.1653 C.3     
   5 N5             1.0553    -1.9158    -1.1867 N.am    
   6 C6             1.7423    -2.4099    -0.1286 C.2     
   7 O7             2.3943    -3.4337    -0.2083 O.2     
   8 C8             1.6565    -1.6393     1.1222 C.2     
   9 C9             2.3514    -1.7444     2.3076 C.2     
  10 C10            1.8654    -0.7309     3.1596 C.2     
  11 N11            0.9320    -0.0614     2.5260 N.2     
  12 N12            0.7654    -0.6035     1.2588 N.pl3   
  13 C13            3.4040    -2.7304     2.6254 C.2     
  14 N14            4.0664    -2.8350     3.7626 N.2     
  15 C15            4.9165    -3.8684     3.5911 C.2     
  16 N16            4.7309    -4.3306     2.3811 N.2     
  17 O17            3.8663    -3.6957     1.8154 O.3     
  18 C18            5.8845    -4.3855     4.5908 C.ar    
  19 C19            6.7157    -5.4650     4.2816 C.ar    
  20 C20            7.6014    -5.9099     5.2484 C.ar    
  21 C21            7.6345    -5.2775     6.4776 C.ar    
  22 N22            6.8366    -4.2604     6.7406 N.ar    
  23 C23            5.9826    -3.7986     5.8505 C.ar    
  24 C24            0.8981    -2.7085    -2.3276 C.ar    
  25 C25            0.1165    -3.8556    -2.2758 C.ar    
  26 C26           -0.0367    -4.6365    -3.4045 C.ar    
  27 C27            0.5871    -4.2776    -4.5853 C.ar    
  28 C28            1.3659    -3.1363    -4.6403 C.ar    
  29 C29            1.5186    -2.3478    -3.5168 C.ar    
  30 C30            0.4181    -5.1324    -5.8149 C.3     
  31 F31           -0.6937    -4.6912    -6.5404 F       
  32 F32            1.5638    -5.0348    -6.6118 F       
  33 F33            0.2273    -6.4650    -5.4338 F       
  34 H34            0.4953     1.8193     0.1310 H       
  35 H35           -1.1240     1.5446    -0.5551 H       
  36 H36           -0.8880     1.5144     1.2089 H       
  37 H37           -0.2894    -0.5124    -1.9396 H       
  38 H38            1.2575     0.1494    -1.3836 H       
  39 H39            2.2050    -0.5383     4.1666 H       
  40 H40            6.6685    -5.9405     3.3131 H       
  41 H41            8.2590    -6.7420     5.0448 H       
  42 H42            8.3241    -5.6218     7.2341 H       
  43 H43            5.3491    -2.9606     6.1011 H       
  44 H44           -0.3707    -4.1367    -1.3537 H       
  45 H45           -0.6440    -5.5287    -3.3648 H       
  46 H46            1.8520    -2.8589    -5.5640 H       
  47 H47            2.1234    -1.4541    -3.5616 H       
@<TRIPOS>BOND
   1    1    2 1
   2    1   34 1
   3    1   35 1
   4    1   36 1
   5    2    3 1
   6    2   12 1
   7    2    4 1
   8    4    5 1
   9    4   37 1
  10    4   38 1
  11    5    6 am
  12    5   24 1
  13    6    7 2
  14    6    8 1
  15    8   12 1
  16    8    9 2
  17    9   10 1
  18    9   13 1
  19   10   11 2
  20   10   39 1
  21   11   12 1
  22   13   17 1
  23   13   14 2
  24   14   15 1
  25   15   16 2
  26   15   18 1
  27   16   17 1
  28   18   23 ar
  29   18   19 ar
  30   19   20 ar
  31   19   40 1
  32   20   21 ar
  33   20   41 1
  34   21   22 ar
  35   21   42 1
  36   22   23 ar
  37   23   43 1
  38   24   29 ar
  39   24   25 ar
  40   25   26 ar
  41   25   44 1
  42   26   27 ar
  43   26   45 1
  44   27   28 ar
  45   27   30 1
  46   28   29 ar
  47   28   46 1
  48   29   47 1
  49   30   31 1
  50   30   32 1
  51   30   33 1

#	End of record

