#	Name: ASD03091721
#	Creating user name:	WinNT
#	Creation time:	15. 06. 2019 20:31

#	Modifying user name:	WinNT
#	Modification time:	15. 06. 2019 20:31

#	Program:	/corina/corina34_cracker 3.40 0067  02.08.2006

@<TRIPOS>MOLECULE
ASD03091721
  58   60    0    0    0
SMALL
NO_CHARGES


@<TRIPOS>ATOM
   1 C1            -0.0655     1.3766    -0.2018 C.2     
   2 C2             0.0352     0.0527     0.0400 C.2     
   3 N3            -1.1160    -0.5495     0.2450 N.2     
   4 C4            -2.1856     0.1860     0.1911 C.2     
   5 S5            -1.7717     1.8111    -0.1406 S.3     
   6 N6            -3.4744    -0.2783     0.3810 N.3     
   7 C7            -3.6053    -0.9528     1.6807 C.3     
   8 C8            -3.8787    -1.1731    -0.7132 C.3     
   9 C9            -5.3281    -1.6151    -0.4948 C.3     
  10 O10           -5.4425    -2.2404     0.7863 O.3     
  11 C11           -5.0574    -1.3970     1.8752 C.3     
  12 C12            1.0564     2.2988    -0.4649 C.ar    
  13 C13            1.0141     3.1962    -1.5404 C.ar    
  14 C14            2.1912     2.3057     0.3572 C.ar    
  15 C15            3.2149     3.1840     0.0749 C.ar    
  16 N16            3.1360     4.0100    -0.9520 N.ar    
  17 C17            2.0837     4.0397    -1.7486 C.ar    
  18 C18            1.3550    -0.6741     0.0724 C.3     
  19 C19            4.4411     3.2021     0.9507 C.3     
  20 N20            1.8277    -0.7665     1.4559 N.am    
  21 C21            2.9962    -1.3801     1.7292 C.2     
  22 C22            3.4825    -1.4752     3.1524 C.3     
  23 O23            3.6563    -1.8557     0.8298 O.2     
  24 C24            2.0542     5.0057    -2.9050 C.3     
  25 C25           -3.7660    -0.4321    -2.0471 C.3     
  26 C26            4.8224    -2.2131     3.1853 C.3     
  27 C27            5.8788    -1.3850     2.4511 C.3     
  28 C28            5.2553    -2.4196     4.6382 C.3     
  29 H29           -2.9515    -1.8246     1.7058 H       
  30 H30           -3.3255    -0.2641     2.4779 H       
  31 H31           -3.2293    -2.0484    -0.7264 H       
  32 H32           -5.9838    -0.7453    -0.5351 H       
  33 H33           -5.6137    -2.3235    -1.2724 H       
  34 H34           -5.1473    -1.9476     2.8116 H       
  35 H35           -5.7053    -0.5209     1.9038 H       
  36 H36            0.1565     3.2261    -2.1962 H       
  37 H37            2.2622     1.6333     1.1993 H       
  38 H38            1.2277    -1.6767    -0.3358 H       
  39 H39            2.0851    -0.1284    -0.5254 H       
  40 H40            5.1772     2.4996     0.5599 H       
  41 H41            4.8660     4.2058     0.9602 H       
  42 H42            4.1670     2.9140     1.9656 H       
  43 H43            1.2998    -0.3861     2.1753 H       
  44 H44            3.6098    -0.4726     3.5607 H       
  45 H45            2.7524    -2.0209     3.7502 H       
  46 H46            2.4835     4.5301    -3.7867 H       
  47 H47            1.0233     5.2925    -3.1125 H       
  48 H48            2.6343     5.8931    -2.6520 H       
  49 H49           -2.7347    -0.1144    -2.2002 H       
  50 H50           -4.0659    -1.0960    -2.8579 H       
  51 H51           -4.4173     0.4418    -2.0334 H       
  52 H52            4.7158    -3.1817     2.6968 H       
  53 H53            6.8334    -1.9107     2.4745 H       
  54 H54            5.5703    -1.2379     1.4161 H       
  55 H55            5.9853    -0.4165     2.9396 H       
  56 H56            4.5027    -3.0095     5.1613 H       
  57 H57            6.2099    -2.9453     4.6616 H       
  58 H58            5.3619    -1.4510     5.1267 H       
@<TRIPOS>BOND
   1    1    2 2
   2    1   12 1
   3    1    5 1
   4    2    3 1
   5    2   18 1
   6    3    4 2
   7    4    5 1
   8    4    6 1
   9    6    7 1
  10    6    8 1
  11    7   11 1
  12    7   29 1
  13    7   30 1
  14    8    9 1
  15    8   25 1
  16    8   31 1
  17    9   10 1
  18    9   32 1
  19    9   33 1
  20   10   11 1
  21   11   34 1
  22   11   35 1
  23   12   13 ar
  24   12   14 ar
  25   13   17 ar
  26   13   36 1
  27   14   15 ar
  28   14   37 1
  29   15   16 ar
  30   15   19 1
  31   16   17 ar
  32   17   24 1
  33   18   20 1
  34   18   38 1
  35   18   39 1
  36   19   40 1
  37   19   41 1
  38   19   42 1
  39   20   21 am
  40   20   43 1
  41   21   22 1
  42   21   23 2
  43   22   26 1
  44   22   44 1
  45   22   45 1
  46   24   46 1
  47   24   47 1
  48   24   48 1
  49   25   49 1
  50   25   50 1
  51   25   51 1
  52   26   27 1
  53   26   28 1
  54   26   52 1
  55   27   53 1
  56   27   54 1
  57   27   55 1
  58   28   56 1
  59   28   57 1
  60   28   58 1

#	End of record

