#	Name: ASD04370066
#	Creating user name:	WinNT
#	Creation time:	15. 06. 2019 20:49

#	Modifying user name:	WinNT
#	Modification time:	15. 06. 2019 20:49

#	Program:	/corina/corina34_cracker 3.40 0067  02.08.2006

@<TRIPOS>MOLECULE
ASD04370066
  71   72    0    0    0
SMALL
NO_CHARGES


@<TRIPOS>ATOM
   1 C1            -0.6309     1.0722     0.4056 C.2     
   2 C2            -0.4028    -0.4162     0.3442 C.3     
   3 C3             1.0876    -0.6958     0.1405 C.3     
   4 C4             1.3036    -2.1988    -0.0465 C.3     
   5 O5             0.3027     1.8314     0.2975 O.2     
   6 O6            -1.8721     1.5545     0.5748 O.3     
   7 N7             1.8353    -0.2372     1.3139 N.am    
   8 C8             3.1538     0.0231     1.2133 C.2     
   9 C9             3.9454     0.3894     2.4423 C.3     
  10 C10            5.4054     0.6326     2.0547 C.3     
  11 C11            6.2091     1.0045     3.3024 C.3     
  12 C12            7.6691     1.2477     2.9149 C.3     
  13 C13            8.4728     1.6195     4.1625 C.3     
  14 C14            9.9328     1.8627     3.7750 C.3     
  15 C15           10.7365     2.2346     5.0227 C.3     
  16 C16           12.1745     2.4742     4.6410 C.2     
  17 C17           12.7612     3.6215     4.9536 C.2     
  18 O18            3.7033    -0.0375     0.1338 O.2     
  19 C19           14.9136     2.9448     3.9198 C.2     
  20 C20           14.1714     3.8564     4.5793 C.2     
  21 C21           14.8459     5.0407     4.8786 C.2     
  22 C22           16.1101     5.0845     4.4681 C.2     
  23 S23           16.5304     3.5836     3.6550 S.3     
  24 N24            0.6331    -2.6406    -1.2766 N.3     
  25 C25            1.3969    -2.2397    -2.4656 C.3     
  26 C26            0.4071    -4.0921    -1.2608 C.3     
  27 C27           -2.0171     2.9984     0.6246 C.3     
  28 C28           -3.4694     3.3510     0.8180 C.ar    
  29 C29           -3.9837     3.4870     2.0939 C.ar    
  30 C30           -5.3159     3.8104     2.2713 C.ar    
  31 C31           -6.1338     3.9983     1.1728 C.ar    
  32 C32           -5.6193     3.8632    -0.1031 C.ar    
  33 C33           -4.2860     3.5440    -0.2805 C.ar    
  34 H34           -0.7341    -0.8733     1.2766 H       
  35 H35           -0.9683    -0.8364    -0.4875 H       
  36 H36            1.4391    -0.1653    -0.7444 H       
  37 H37            2.3712    -2.4061    -0.1201 H       
  38 H38            0.8875    -2.7346     0.8067 H       
  39 H39            1.3813    -0.1209     2.1632 H       
  40 H40            3.5312     1.2954     2.8846 H       
  41 H41            3.8921    -0.4249     3.1649 H       
  42 H42            5.8197    -0.2734     1.6124 H       
  43 H43            5.4587     1.4469     1.3321 H       
  44 H44            5.7949     1.9105     3.7448 H       
  45 H45            6.1558     0.1902     4.0250 H       
  46 H46            8.0834     0.3417     2.4725 H       
  47 H47            7.7224     2.0620     2.1923 H       
  48 H48            8.0585     2.5255     4.6049 H       
  49 H49            8.4195     0.8052     4.8851 H       
  50 H50           10.3470     0.9568     3.3327 H       
  51 H51            9.9861     2.6771     3.0524 H       
  52 H52           10.3222     3.1406     5.4650 H       
  53 H53           10.6832     1.4203     5.7453 H       
  54 H54           12.7273     1.7114     4.1128 H       
  55 H55           12.2085     4.3843     5.4818 H       
  56 H56           14.5697     1.9702     3.6062 H       
  57 H57           14.3768     5.8597     5.4035 H       
  58 H58           16.7798     5.9194     4.6127 H       
  59 H59            2.3617    -2.7469    -2.4658 H       
  60 H60            0.8423    -2.5135    -3.3631 H       
  61 H61            1.5535    -1.1611    -2.4502 H       
  62 H62           -0.2197    -4.3530    -0.4081 H       
  63 H63           -0.0905    -4.3924    -2.1829 H       
  64 H64            1.3639    -4.6079    -1.1797 H       
  65 H65           -1.4334     3.3937     1.4560 H       
  66 H66           -1.6592     3.4319    -0.3092 H       
  67 H67           -3.3447     3.3403     2.9522 H       
  68 H68           -5.7178     3.9160     3.2682 H       
  69 H69           -7.1748     4.2503     1.3114 H       
  70 H70           -6.2583     4.0096    -0.9613 H       
  71 H71           -3.8832     3.4421    -1.2774 H       
@<TRIPOS>BOND
   1    1    2 1
   2    1    5 2
   3    1    6 1
   4    2    3 1
   5    2   34 1
   6    2   35 1
   7    3    4 1
   8    3    7 1
   9    3   36 1
  10    4   24 1
  11    4   37 1
  12    4   38 1
  13    6   27 1
  14    7    8 am
  15    7   39 1
  16    8    9 1
  17    8   18 2
  18    9   10 1
  19    9   40 1
  20    9   41 1
  21   10   11 1
  22   10   42 1
  23   10   43 1
  24   11   12 1
  25   11   44 1
  26   11   45 1
  27   12   13 1
  28   12   46 1
  29   12   47 1
  30   13   14 1
  31   13   48 1
  32   13   49 1
  33   14   15 1
  34   14   50 1
  35   14   51 1
  36   15   16 1
  37   15   52 1
  38   15   53 1
  39   16   17 2
  40   16   54 1
  41   17   20 1
  42   17   55 1
  43   19   20 2
  44   19   23 1
  45   19   56 1
  46   20   21 1
  47   21   22 2
  48   21   57 1
  49   22   23 1
  50   22   58 1
  51   24   25 1
  52   24   26 1
  53   25   59 1
  54   25   60 1
  55   25   61 1
  56   26   62 1
  57   26   63 1
  58   26   64 1
  59   27   28 1
  60   27   65 1
  61   27   66 1
  62   28   29 ar
  63   28   33 ar
  64   29   30 ar
  65   29   67 1
  66   30   31 ar
  67   30   68 1
  68   31   32 ar
  69   31   69 1
  70   32   33 ar
  71   32   70 1
  72   33   71 1

#	End of record

