#	Name: ASD04560019
#	Creating user name:	WinNT
#	Creation time:	15. 06. 2019 20:49

#	Modifying user name:	WinNT
#	Modification time:	15. 06. 2019 20:49

#	Program:	/corina/corina34_cracker 3.40 0067  02.08.2006

@<TRIPOS>MOLECULE
ASD04560019
  71   76    0    0    0
SMALL
NO_CHARGES


@<TRIPOS>ATOM
   1 C1             0.7148     0.9808     1.1465 C.ar    
   2 C2             0.6302    -0.3875     1.1505 C.ar    
   3 C3             1.7903    -1.1585     1.1411 C.ar    
   4 C4             3.0394    -0.5421     1.1280 C.ar    
   5 C5             3.1303     0.8257     1.1240 C.ar    
   6 C6             1.9674     1.6024     1.1330 C.ar    
   7 C7             2.0618     3.0739     1.1282 C.2     
   8 O8             3.1517     3.6133     1.1164 O.2     
   9 N9             0.9402     3.8211     1.1369 N.am    
  10 C10            1.0281     5.2140     1.2412 C.ar    
  11 C11            0.0872     6.0191     0.6127 C.ar    
  12 C12            2.1379     7.1675     2.0797 C.ar    
  13 C13            2.0530     5.7928     1.9781 C.ar    
  14 F14            1.2868     9.3132     1.5481 F       
  15 S15            1.6775    -2.9169     1.1462 S.3     
  16 C16            0.1758     7.3934     0.7169 C.ar    
  17 C17            1.2019     7.9687     1.4474 C.ar    
  18 C18            4.9336    -5.3978     1.1205 C.ar    
  19 C19            5.6441    -5.4946     2.3155 C.ar    
  20 B20            4.9466    -5.1488     3.6752 Du      
  21 C21            6.9776    -5.9007     2.2967 C.ar    
  22 C22            7.5866    -6.2045     1.0967 C.ar    
  23 C23            6.8764    -6.1062    -0.0870 C.ar    
  24 C24            5.5527    -5.7041    -0.0742 C.ar    
  25 O25            3.5916    -4.7197     3.8697 O.3     
  26 C26            3.5609    -4.2352     5.2229 C.3     
  27 C27            4.3489    -5.3982     5.8365 C.3     
  28 O28            5.5265    -5.1908     4.9898 O.3     
  29 C29            4.4554    -5.1400     7.3221 C.3     
  30 C30            3.7945    -6.7621     5.4408 C.3     
  31 C31            3.4152    -3.4373     1.1306 C.3     
  32 C32            3.4900    -4.9655     1.1334 C.3     
  33 C33            2.2902    -4.1144     6.0364 C.3     
  34 C34            2.7458    -3.9100     7.4814 C.3     
  35 C35            4.2438    -3.6317     7.5647 C.3     
  36 C36            3.1833    -5.2234     8.1369 C.3     
  37 C37            2.2244    -6.3892     7.9266 C.3     
  38 C38            3.4338    -5.0606     9.6570 C.3     
  39 H39           -0.1851     1.5780     1.1494 H       
  40 H40           -0.3369    -0.8682     1.1613 H       
  41 H41            3.9372    -1.1424     1.1215 H       
  42 H42            4.0991     1.3031     1.1143 H       
  43 H43            0.0720     3.3935     1.0708 H       
  44 H44           -0.7131     5.5709     0.0425 H       
  45 H45            2.9349     7.6181     2.6527 H       
  46 H46            2.7830     5.1684     2.4716 H       
  47 H47           -0.5555     8.0200     0.2280 H       
  48 H48            7.5329    -5.9771     3.2199 H       
  49 H49            8.6196    -6.5192     1.0810 H       
  50 H50            7.3573    -6.3442    -1.0243 H       
  51 H51            5.0031    -5.6294    -1.0008 H       
  52 H52            4.1338    -3.2996     5.2420 H       
  53 H53            5.3701    -5.5500     7.7932 H       
  54 H54            3.9695    -6.9311     4.3783 H       
  55 H55            4.2941    -7.5392     6.0194 H       
  56 H56            2.7236    -6.7913     5.6418 H       
  57 H57            3.9020    -3.0514     0.2350 H       
  58 H58            3.9192    -3.0473     2.0149 H       
  59 H59            2.9859    -5.3555     0.2492 H       
  60 H60            3.0031    -5.3514     2.0290 H       
  61 H61            1.7238    -3.2219     5.7131 H       
  62 H62            1.6369    -4.9725     5.9171 H       
  63 H63            2.0982    -3.2665     8.0809 H       
  64 H64            4.6070    -3.2684     8.5177 H       
  65 H65            4.6331    -3.0094     6.7600 H       
  66 H66            2.7682    -7.3289     8.0234 H       
  67 H67            1.4332    -6.3485     8.6753 H       
  68 H68            1.7860    -6.3240     6.9308 H       
  69 H69            3.8890    -4.0888     9.8481 H       
  70 H70            2.4859    -5.1291    10.1908 H       
  71 H71            4.1027    -5.8492    10.0015 H       
@<TRIPOS>BOND
   1    1    2 ar
   2    1    6 ar
   3    1   39 1
   4    2    3 ar
   5    2   40 1
   6    3    4 ar
   7    3   15 1
   8    4    5 ar
   9    4   41 1
  10    5    6 ar
  11    5   42 1
  12    6    7 1
  13    7    8 2
  14    7    9 am
  15    9   10 1
  16    9   43 1
  17   10   11 ar
  18   10   13 ar
  19   11   16 ar
  20   11   44 1
  21   12   13 ar
  22   12   17 ar
  23   12   45 1
  24   13   46 1
  25   14   17 1
  26   15   31 1
  27   16   17 ar
  28   16   47 1
  29   18   19 ar
  30   18   24 ar
  31   18   32 1
  32   19   20 1
  33   19   21 ar
  34   20   25 1
  35   20   28 1
  36   21   22 ar
  37   21   48 1
  38   22   23 ar
  39   22   49 1
  40   23   24 ar
  41   23   50 1
  42   24   51 1
  43   25   26 1
  44   26   27 1
  45   26   33 1
  46   26   52 1
  47   27   28 1
  48   27   29 1
  49   27   30 1
  50   29   35 1
  51   29   36 1
  52   29   53 1
  53   30   54 1
  54   30   55 1
  55   30   56 1
  56   31   32 1
  57   31   57 1
  58   31   58 1
  59   32   59 1
  60   32   60 1
  61   33   34 1
  62   33   61 1
  63   33   62 1
  64   34   35 1
  65   34   36 1
  66   34   63 1
  67   35   64 1
  68   35   65 1
  69   36   37 1
  70   36   38 1
  71   37   66 1
  72   37   67 1
  73   37   68 1
  74   38   69 1
  75   38   70 1
  76   38   71 1

#	End of record

