#	Name: ASD01882938
#	Creating user name:	WinNT
#	Creation time:	15. 06. 2019 19:45

#	Modifying user name:	WinNT
#	Modification time:	15. 06. 2019 19:45

#	Program:	/corina/corina34_cracker 3.40 0067  02.08.2006

@<TRIPOS>MOLECULE
ASD01882938
  27   27    0    0    0
SMALL
NO_CHARGES


@<TRIPOS>ATOM
   1 C1            -0.0173     1.4278     0.0099 C.2     
   2 C2             0.0021    -0.0041     0.0020 C.1     
   3 C3             0.0180    -1.1779    -0.0044 C.1     
   4 C4             0.0380    -2.6498    -0.0125 C.3     
   5 O5             1.0268     2.0497     0.0033 O.2     
   6 O6            -1.1938     2.0858     0.0190 O.3     
   7 S7            -1.6639    -3.2777     0.0003 S.3     
   8 C8            -1.4416    -5.0256    -0.0112 C.ar    
   9 C9            -2.5466    -5.8683    -0.0051 C.ar    
  10 C10           -2.3686    -7.2376    -0.0141 C.ar    
  11 C11           -1.0924    -7.7706    -0.0287 C.ar    
  12 C12            0.0096    -6.9350    -0.0343 C.ar    
  13 C13           -0.1608    -5.5647    -0.0320 C.ar    
  14 C14           -1.1375     3.5367     0.0267 C.3     
  15 C15           -2.5591     4.1022     0.0365 C.3     
  16 H16            0.5481    -3.0013    -0.9093 H       
  17 H17            0.5651    -3.0109     0.8705 H       
  18 H18           -3.5434    -5.4528     0.0069 H       
  19 H19           -3.2268    -7.8931    -0.0095 H       
  20 H20           -0.9562    -8.8419    -0.0353 H       
  21 H21            1.0046    -7.3547    -0.0453 H       
  22 H22            0.7001    -4.9128    -0.0413 H       
  23 H23           -0.6057     3.8750     0.9160 H       
  24 H24           -0.6141     3.8847    -0.8639 H       
  25 H25           -2.5168     5.1914     0.0422 H       
  26 H26           -3.0908     3.7639    -0.8528 H       
  27 H27           -3.0824     3.7543     0.9271 H       
@<TRIPOS>BOND
   1    1    2 1
   2    1    5 2
   3    1    6 1
   4    2    3 3
   5    3    4 1
   6    4    7 1
   7    4   16 1
   8    4   17 1
   9    6   14 1
  10    7    8 1
  11    8    9 ar
  12    8   13 ar
  13    9   10 ar
  14    9   18 1
  15   10   11 ar
  16   10   19 1
  17   11   12 ar
  18   11   20 1
  19   12   13 ar
  20   12   21 1
  21   13   22 1
  22   14   15 1
  23   14   23 1
  24   14   24 1
  25   15   25 1
  26   15   26 1
  27   15   27 1

#	End of record

