#	Name: ASD03330940
#	Creating user name:	WinNT
#	Creation time:	15. 06. 2019 20:38

#	Modifying user name:	WinNT
#	Modification time:	15. 06. 2019 20:38

#	Program:	/corina/corina34_cracker 3.40 0067  02.08.2006

@<TRIPOS>MOLECULE
ASD03330940
  60   62    0    0    0
SMALL
NO_CHARGES


@<TRIPOS>ATOM
   1 C1            -0.0346     1.3356     0.3385 C.2     
   2 C2             0.0596    -0.1432     0.6129 C.3     
   3 N3             1.0420     2.1632     0.2888 N.pl3   
   4 N4             1.4644    -0.5515     0.4319 N.3     
   5 C5             2.3738     0.3330     1.1739 C.3     
   6 C6             2.4199     1.7117     0.5028 C.3     
   7 C7             0.5856     3.4141     0.0177 C.2     
   8 N8            -0.7231     3.3660    -0.0934 N.2     
   9 C9            -1.1345     2.0913     0.0957 C.2     
  10 C10           -2.5269     1.6108     0.0493 C.2     
  11 O11           -2.7710     0.4346     0.2394 O.2     
  12 N12           -3.5298     2.4748    -0.2039 N.am    
  13 C13            1.4212     4.6265    -0.1273 C.ar    
  14 C14            2.8017     4.5102    -0.2915 C.ar    
  15 C15            3.5755     5.6446    -0.4261 C.ar    
  16 C16            2.9851     6.8954    -0.3980 C.ar    
  17 C17            1.6168     7.0175    -0.2349 C.ar    
  18 C18            0.8312     5.8905    -0.1060 C.ar    
  19 C19            1.6593    -1.9542     0.8224 C.3     
  20 C20           -5.7362     2.9222    -1.1099 C.2     
  21 C21           -4.9140     1.9971    -0.2500 C.3     
  22 C22           -5.4916     1.9697     1.1665 C.3     
  23 C23           -5.3730     3.3606     1.7927 C.3     
  24 O24           -5.3408     4.0447    -1.3432 O.2     
  25 C25           -6.9646     1.5603     1.1088 C.3     
  26 C26           -4.7146     0.9607     2.0146 C.3     
  27 N27           -6.9109     2.5020    -1.6197 N.am    
  28 C28           -7.7542     3.4296    -2.3777 C.3     
  29 C29           -9.0202     2.7059    -2.8407 C.3     
  30 F30           -9.8255     3.5918    -3.5646 F       
  31 H31           -0.2550    -0.3489     1.6360 H       
  32 H32           -0.5754    -0.6886    -0.0853 H       
  33 H33            2.0185     0.4406     2.1988 H       
  34 H34            3.3741    -0.0999     1.1817 H       
  35 H35            2.9354     1.6374    -0.4548 H       
  36 H36            2.9422     2.4178     1.1484 H       
  37 H37           -3.3352     3.4129    -0.3555 H       
  38 H38            3.2638     3.5342    -0.3130 H       
  39 H39            4.6443     5.5559    -0.5533 H       
  40 H40            3.5952     7.7804    -0.5034 H       
  41 H41            1.1619     7.9968    -0.2134 H       
  42 H42           -0.2375     5.9869     0.0160 H       
  43 H43            1.0273    -2.5940     0.2066 H       
  44 H44            2.7042    -2.2294     0.6791 H       
  45 H45            1.3911    -2.0800     1.8714 H       
  46 H46           -4.9377     0.9923    -0.6716 H       
  47 H47           -5.9265     4.0795     1.1885 H       
  48 H48           -5.7844     3.3411     2.8018 H       
  49 H49           -4.3235     3.6523     1.8338 H       
  50 H50           -7.0478     0.5626     0.6778 H       
  51 H51           -7.3804     1.5566     2.1164 H       
  52 H52           -7.5150     2.2699     0.4911 H       
  53 H53           -3.6652     1.2524     2.0557 H       
  54 H54           -5.1261     0.9411     3.0237 H       
  55 H55           -4.7991    -0.0302     1.5685 H       
  56 H56           -7.1981     1.5853    -1.4848 H       
  57 H57           -8.0289     4.2722    -1.7431 H       
  58 H58           -7.2050     3.7929    -3.2464 H       
  59 H59           -8.7455     1.8633    -3.4753 H       
  60 H60           -9.5694     2.3427    -1.9721 H       
@<TRIPOS>BOND
   1    1    2 1
   2    1    3 1
   3    1    9 2
   4    2    4 1
   5    2   31 1
   6    2   32 1
   7    3    6 1
   8    3    7 1
   9    4    5 1
  10    4   19 1
  11    5    6 1
  12    5   33 1
  13    5   34 1
  14    6   35 1
  15    6   36 1
  16    7    8 2
  17    7   13 1
  18    8    9 1
  19    9   10 1
  20   10   11 2
  21   10   12 am
  22   12   21 1
  23   12   37 1
  24   13   14 ar
  25   13   18 ar
  26   14   15 ar
  27   14   38 1
  28   15   16 ar
  29   15   39 1
  30   16   17 ar
  31   16   40 1
  32   17   18 ar
  33   17   41 1
  34   18   42 1
  35   19   43 1
  36   19   44 1
  37   19   45 1
  38   20   24 2
  39   20   27 am
  40   20   21 1
  41   21   22 1
  42   21   46 1
  43   22   23 1
  44   22   25 1
  45   22   26 1
  46   23   47 1
  47   23   48 1
  48   23   49 1
  49   25   50 1
  50   25   51 1
  51   25   52 1
  52   26   53 1
  53   26   54 1
  54   26   55 1
  55   27   28 1
  56   27   56 1
  57   28   29 1
  58   28   57 1
  59   28   58 1
  60   29   30 1
  61   29   59 1
  62   29   60 1

#	End of record

