#	Name: ASD00170750
#	Creating user name:	WinNT
#	Creation time:	15. 06. 2019 18:32

#	Modifying user name:	WinNT
#	Modification time:	15. 06. 2019 18:32

#	Program:	/corina/corina34_cracker 3.40 0067  02.08.2006

@<TRIPOS>MOLECULE
ASD00170750
  39   41    0    0    0
SMALL
NO_CHARGES


@<TRIPOS>ATOM
   1 C1            -0.0170     1.2078     0.0003 C.2     
   2 O2             0.6391     0.9995    -1.0044 O.2     
   3 C3             0.4742     0.7392     1.3149 C.ar    
   4 C4             1.6297    -0.0395     1.3943 C.ar    
   5 C5             2.0827    -0.4728     2.6232 C.ar    
   6 C6             1.3941    -0.1370     3.7754 C.ar    
   7 C7             0.2479     0.6346     3.7035 C.ar    
   8 C8            -0.2127     1.0788     2.4813 C.ar    
   9 C9            -1.3570     3.2722    -0.0193 C.2     
  10 C10           -1.2491     1.9047    -0.0891 C.2     
  11 C11           -2.5355     1.2485    -0.2647 C.2     
  12 C12           -3.5544     2.1122    -0.3215 C.2     
  13 S13           -2.9822     3.7629    -0.1627 S.3     
  14 C14           -2.6991    -0.2209    -0.3698 C.ar    
  15 C15           -3.3951    -0.9200     0.6158 C.ar    
  16 C16           -3.5442    -2.2877     0.5126 C.ar    
  17 C17           -3.0046    -2.9657    -0.5661 C.ar    
  18 C18           -2.3129    -2.2777    -1.5466 C.ar    
  19 C19           -2.1627    -0.9086    -1.4573 C.ar    
  20 C20           -4.2956    -3.0448     1.5771 C.3     
  21 F21           -5.6512    -3.1061     1.2367 F       
  22 F22           -3.7810    -4.3418     1.6782 F       
  23 F23           -4.1523    -2.3892     2.8047 F       
  24 C24           -4.9988     1.7208    -0.4989 C.3     
  25 N25           -0.2923     4.1330     0.1501 N.pl3   
  26 H26            2.1679    -0.3025     0.4957 H       
  27 H27            2.9765    -1.0757     2.6861 H       
  28 H28            1.7526    -0.4791     4.7350 H       
  29 H29           -0.2851     0.8933     4.6066 H       
  30 H30           -1.1052     1.6845     2.4269 H       
  31 H31           -3.8164    -0.3918     1.4585 H       
  32 H32           -3.1238    -4.0363    -0.6427 H       
  33 H33           -1.8933    -2.8123    -2.3860 H       
  34 H34           -1.6268    -0.3718    -2.2261 H       
  35 H35           -5.4558     1.5654     0.4784 H       
  36 H36           -5.5284     2.5148    -1.0254 H       
  37 H37           -5.0570     0.7992    -1.0779 H       
  38 H38            0.5977     3.7792     0.3040 H       
  39 H39           -0.4336     5.0920     0.1154 H       
@<TRIPOS>BOND
   1    1    2 2
   2    1    3 1
   3    1   10 1
   4    3    4 ar
   5    3    8 ar
   6    4    5 ar
   7    4   26 1
   8    5    6 ar
   9    5   27 1
  10    6    7 ar
  11    6   28 1
  12    7    8 ar
  13    7   29 1
  14    8   30 1
  15    9   10 2
  16    9   13 1
  17    9   25 1
  18   10   11 1
  19   11   12 2
  20   11   14 1
  21   12   13 1
  22   12   24 1
  23   14   15 ar
  24   14   19 ar
  25   15   16 ar
  26   15   31 1
  27   16   17 ar
  28   16   20 1
  29   17   18 ar
  30   17   32 1
  31   18   19 ar
  32   18   33 1
  33   19   34 1
  34   20   21 1
  35   20   22 1
  36   20   23 1
  37   24   35 1
  38   24   36 1
  39   24   37 1
  40   25   38 1
  41   25   39 1

#	End of record

