#	Name: ASD04530020
#	Creating user name:	WinNT
#	Creation time:	15. 06. 2019 20:49

#	Modifying user name:	WinNT
#	Modification time:	15. 06. 2019 20:49

#	Program:	/corina/corina34_cracker 3.40 0067  02.08.2006

@<TRIPOS>MOLECULE
ASD04530020
  29   30    0    0    0
SMALL
NO_CHARGES


@<TRIPOS>ATOM
   1 C1             0.7151     0.3817    -0.8703 C.ar    
   2 C2             0.2692    -0.0087     0.3794 C.ar    
   3 C3             0.9752     0.3485     1.5144 C.ar    
   4 C4             2.1292     1.0971     1.4052 C.ar    
   5 C5             2.5834     1.4935     0.1482 C.ar    
   6 C6             1.8680     1.1307    -0.9917 C.ar    
   7 C7             3.8227     2.2986     0.0243 C.2     
   8 C8             3.9023     3.3782    -0.7721 C.2     
   9 S9             5.5268     4.0469    -0.6370 S.3     
  10 C10            5.9569     2.7791     0.5069 C.2     
  11 N11            4.9336     2.0056     0.6990 N.2     
  12 N12            7.1946     2.6338     1.1121 N.pl3   
  13 C13            0.4827    -0.0803     2.8725 C.3     
  14 C14            1.8985     4.8388    -0.7938 C.3     
  15 C15            2.7923     3.9236    -1.6331 C.3     
  16 H16            0.1624     0.0962    -1.7532 H       
  17 H17           -0.6337    -0.5944     0.4697 H       
  18 H18            2.6793     1.3757     2.2919 H       
  19 H19            2.2155     1.4347    -1.9680 H       
  20 H20            7.9075     3.2613     0.9152 H       
  21 H21            7.3483     1.9044     1.7329 H       
  22 H22            0.9167    -1.0470     3.1279 H       
  23 H23            0.7791     0.6590     3.6166 H       
  24 H24           -0.6040    -0.1631     2.8555 H       
  25 H25            2.5075     5.6135    -0.3278 H       
  26 H26            1.1491     5.3025    -1.4352 H       
  27 H27            1.4023     4.2525    -0.0205 H       
  28 H28            3.2192     4.4913    -2.4599 H       
  29 H29            2.1992     3.0983    -2.0271 H       
@<TRIPOS>BOND
   1    1    2 ar
   2    1    6 ar
   3    1   16 1
   4    2    3 ar
   5    2   17 1
   6    3    4 ar
   7    3   13 1
   8    4    5 ar
   9    4   18 1
  10    5    6 ar
  11    5    7 1
  12    6   19 1
  13    7    8 2
  14    7   11 1
  15    8    9 1
  16    8   15 1
  17    9   10 1
  18   10   11 2
  19   10   12 1
  20   12   20 1
  21   12   21 1
  22   13   22 1
  23   13   23 1
  24   13   24 1
  25   14   15 1
  26   14   25 1
  27   14   26 1
  28   14   27 1
  29   15   28 1
  30   15   29 1

#	End of record

