#	Name: ASD01916129
#	Creating user name:	WinNT
#	Creation time:	15. 06. 2019 20:06

#	Modifying user name:	WinNT
#	Modification time:	15. 06. 2019 20:06

#	Program:	/corina/corina34_cracker 3.40 0067  02.08.2006

@<TRIPOS>MOLECULE
ASD01916129
  44   47    0    0    0
SMALL
NO_CHARGES


@<TRIPOS>ATOM
   1 C1            -0.1116     1.3883     0.0736 C.ar    
   2 C2            -0.0793     0.0054     0.0587 C.ar    
   3 C3            -1.2650    -0.7144     0.0490 C.ar    
   4 C4            -2.4804    -0.0456     0.0543 C.ar    
   5 C5            -2.5086     1.3358     0.0692 C.ar    
   6 C6            -1.3271     2.0527     0.0846 C.ar    
   7 O7            -1.2361    -2.0730     0.0339 O.3     
   8 C8            -2.4953    -2.7486     0.0246 C.3     
   9 C9            -2.2661    -4.2380     0.0083 C.2     
  10 C10           -1.0194    -4.8766     0.0029 C.2     
  11 N11           -3.1986    -5.1582     0.0025 N.2     
  12 N12           -2.5763    -6.4094    -0.0084 N.pl3   
  13 C13           -1.2388    -6.2049    -0.0129 C.2     
  14 C14           -3.2240    -7.7240    -0.0052 C.3     
  15 C15           -2.2218    -8.7821    -0.4794 C.3     
  16 N16           -0.9377    -8.5753     0.2073 N.am    
  17 C17           -0.2143    -7.3145    -0.0382 C.3     
  18 C18           -0.4373    -9.5094     1.0400 C.2     
  19 C19            0.9136    -9.3387     1.6162 C.ar    
  20 O20           -1.0966   -10.4922     1.3175 O.2     
  21 C21            1.1833    -9.7799     2.9124 C.ar    
  22 C22            2.4457    -9.6182     3.4455 C.ar    
  23 C23            3.4443    -9.0201     2.6986 C.ar    
  24 C24            3.1843    -8.5789     1.4108 C.ar    
  25 C25            1.9258    -8.7409     0.8638 C.ar    
  26 F26            1.0423     2.0909     0.0831 F       
  27 F27            4.1643    -7.9951     0.6870 F       
  28 H28            0.8681    -0.5133     0.0543 H       
  29 H29           -3.4044    -0.6046     0.0464 H       
  30 H30           -3.4551     1.8559     0.0733 H       
  31 H31           -1.3514     3.1323     0.0966 H       
  32 H32           -3.0596    -2.4776     0.9168 H       
  33 H33           -3.0571    -2.4577    -0.8630 H       
  34 H34           -0.0550    -4.3906     0.0102 H       
  35 H35           -3.5558    -7.9639     1.0050 H       
  36 H36           -4.0823    -7.7086    -0.6769 H       
  37 H37           -2.6037    -9.7759    -0.2457 H       
  38 H38           -2.0779    -8.6905    -1.5560 H       
  39 H39            0.2701    -7.3475    -1.0141 H       
  40 H40            0.5298    -7.1547     0.7421 H       
  41 H41            0.4049   -10.2469     3.4976 H       
  42 H42            2.6544    -9.9593     4.4488 H       
  43 H43            4.4306    -8.8961     3.1208 H       
  44 H44            1.7233    -8.3973    -0.1398 H       
@<TRIPOS>BOND
   1    1    2 ar
   2    1   26 1
   3    1    6 ar
   4    2    3 ar
   5    2   28 1
   6    3    4 ar
   7    3    7 1
   8    4    5 ar
   9    4   29 1
  10    5    6 ar
  11    5   30 1
  12    6   31 1
  13    7    8 1
  14    8    9 1
  15    8   32 1
  16    8   33 1
  17    9   10 1
  18    9   11 2
  19   10   13 2
  20   10   34 1
  21   11   12 1
  22   12   13 1
  23   12   14 1
  24   13   17 1
  25   14   15 1
  26   14   35 1
  27   14   36 1
  28   15   16 1
  29   15   37 1
  30   15   38 1
  31   16   17 1
  32   16   18 am
  33   17   39 1
  34   17   40 1
  35   18   19 1
  36   18   20 2
  37   19   21 ar
  38   19   25 ar
  39   21   22 ar
  40   21   41 1
  41   22   23 ar
  42   22   42 1
  43   23   24 ar
  44   23   43 1
  45   24   25 ar
  46   24   27 1
  47   25   44 1

#	End of record

