#	Name: ASD01151013
#	Creating user name:	WinNT
#	Creation time:	15. 06. 2019 19:05

#	Modifying user name:	WinNT
#	Modification time:	15. 06. 2019 19:05

#	Program:	/corina/corina34_cracker 3.40 0067  02.08.2006

@<TRIPOS>MOLECULE
ASD01151013
  42   43    0    0    0
SMALL
NO_CHARGES


@<TRIPOS>ATOM
   1 C1            -0.0168     1.3845     0.0097 C.2     
   2 C2             0.0021    -0.0041     0.0020 C.2     
   3 N3            -1.2696    -0.4207     0.0119 N.2     
   4 C4            -2.0752     0.6089     0.0251 C.2     
   5 N5            -1.3581     1.7463     0.0305 N.pl3   
   6 C6            -3.5802     0.5324     0.0386 C.3     
   7 C7            -4.0645    -0.2074    -1.2101 C.3     
   8 C8            -1.8911     3.1108     0.0449 C.3     
   9 C9             1.0996     2.2517     0.0037 C.2     
  10 O10            0.9155     3.5890     0.0131 O.3     
  11 O11            2.2269     1.7926    -0.0100 O.2     
  12 C12            2.0883     4.4054     0.0062 C.3     
  13 C13            1.6828     5.8806     0.0187 C.3     
  14 N14            1.1306    -0.8103    -0.0135 N.pl3   
  15 C15           -4.0414    -0.2203     1.2883 C.3     
  16 C16           -2.0657     3.5669     1.4706 C.ar    
  17 C17           -1.0307     4.2116     2.1218 C.ar    
  18 C18           -1.1908     4.6299     3.4295 C.ar    
  19 C19           -2.3861     4.4038     4.0860 C.ar    
  20 C20           -3.4215     3.7599     3.4346 C.ar    
  21 C21           -3.2628     3.3455     2.1254 C.ar    
  22 H22           -3.9952     1.5402     0.0476 H       
  23 H23           -3.6495    -1.2153    -1.2191 H       
  24 H24           -5.1530    -0.2627    -1.2003 H       
  25 H25           -3.7359     0.3288    -2.1004 H       
  26 H26           -1.1972     3.7773    -0.4673 H       
  27 H27           -2.8552     3.1297    -0.4632 H       
  28 H28            2.6887     4.1862     0.8891 H       
  29 H29            2.6713     4.1963    -0.8907 H       
  30 H30            2.5774     6.5033     0.0134 H       
  31 H31            1.0824     6.0998    -0.8642 H       
  32 H32            1.0998     6.0897     0.9156 H       
  33 H33            2.0136    -0.4087    -0.0201 H       
  34 H34            1.0370    -1.7757    -0.0177 H       
  35 H35           -3.6265    -1.2282     1.2792 H       
  36 H36           -3.6964     0.3067     2.1778 H       
  37 H37           -5.1300    -0.2756     1.2980 H       
  38 H38           -0.0968     4.3882     1.6088 H       
  39 H39           -0.3819     5.1329     3.9385 H       
  40 H40           -2.5110     4.7300     5.1080 H       
  41 H41           -4.3552     3.5830     3.9476 H       
  42 H42           -4.0717     2.8424     1.6165 H       
@<TRIPOS>BOND
   1    1    2 2
   2    1    9 1
   3    1    5 1
   4    2    3 1
   5    2   14 1
   6    3    4 2
   7    4    5 1
   8    4    6 1
   9    5    8 1
  10    6    7 1
  11    6   15 1
  12    6   22 1
  13    7   23 1
  14    7   24 1
  15    7   25 1
  16    8   16 1
  17    8   26 1
  18    8   27 1
  19    9   10 1
  20    9   11 2
  21   10   12 1
  22   12   13 1
  23   12   28 1
  24   12   29 1
  25   13   30 1
  26   13   31 1
  27   13   32 1
  28   14   33 1
  29   14   34 1
  30   15   35 1
  31   15   36 1
  32   15   37 1
  33   16   17 ar
  34   16   21 ar
  35   17   18 ar
  36   17   38 1
  37   18   19 ar
  38   18   39 1
  39   19   20 ar
  40   19   40 1
  41   20   21 ar
  42   20   41 1
  43   21   42 1

#	End of record

