#	Name: ASD01200280
#	Creating user name:	WinNT
#	Creation time:	15. 06. 2019 19:08

#	Modifying user name:	WinNT
#	Modification time:	15. 06. 2019 19:08

#	Program:	/corina/corina34_cracker 3.40 0067  02.08.2006

@<TRIPOS>MOLECULE
ASD01200280
  42   43    0    0    0
SMALL
NO_CHARGES


@<TRIPOS>ATOM
   1 C1            -0.0167     1.3828     0.0096 C.ar    
   2 C2             0.0021    -0.0041     0.0020 C.ar    
   3 C3             1.2125    -0.6811    -0.0132 C.ar    
   4 C4             2.3992     0.0257    -0.0213 C.ar    
   5 C5             2.3804     1.4126    -0.0146 C.ar    
   6 C6             1.1700     2.0896     0.0021 C.ar    
   7 O7            -1.1662    -0.6999     0.0099 O.3     
   8 O8             3.5486     2.1084    -0.0216 O.3     
   9 C9             3.4545     3.5343    -0.0140 C.3     
  10 C10            4.8602     4.1383    -0.0236 C.3     
  11 C11            4.7594     5.6649    -0.0155 C.3     
  12 C12            6.1440     6.2598    -0.0249 C.2     
  13 N13            6.3024     7.5983    -0.0199 N.am    
  14 C14            7.5795     8.1470    -0.0286 C.2     
  15 N15            7.8423     9.4163    -0.0249 N.2     
  16 O16            7.1157     5.5342    -0.0368 O.2     
  17 C17           -1.0721    -2.1258     0.0013 C.3     
  18 S18            9.0325     7.2459    -0.0382 S.3     
  19 C19            9.9698     8.7376    -0.0436 C.2     
  20 C20            9.1158     9.7629    -0.0338 C.2     
  21 C21           11.4734     8.8380    -0.0532 C.3     
  22 C22            9.5688    11.2002    -0.0354 C.3     
  23 H23           -0.9593     1.9100     0.0170 H       
  24 H24            1.2271    -1.7610    -0.0184 H       
  25 H25            3.3417    -0.5015    -0.0324 H       
  26 H26            1.1553     3.1695     0.0073 H       
  27 H27            2.9100     3.8672    -0.8977 H       
  28 H28            2.9257     3.8588     0.8822 H       
  29 H29            5.4047     3.8054     0.8601 H       
  30 H30            5.3890     3.8138    -0.9198 H       
  31 H31            4.2149     5.9978    -0.8991 H       
  32 H32            4.2306     5.9894     0.8808 H       
  33 H33            5.5253     8.1786    -0.0104 H       
  34 H34           -2.0735    -2.5561     0.0090 H       
  35 H35           -0.5443    -2.4497    -0.8957 H       
  36 H36           -0.5266    -2.4592     0.8842 H       
  37 H37           11.9045     7.8369    -0.0568 H       
  38 H38           11.7960     9.3757    -0.9448 H       
  39 H39           11.8074     9.3742     0.8351 H       
  40 H40            9.6683    11.5486    -1.0635 H       
  41 H41            8.8340    11.8133     0.4864 H       
  42 H42           10.5316    11.2783     0.4695 H       
@<TRIPOS>BOND
   1    1    2 ar
   2    1    6 ar
   3    1   23 1
   4    2    3 ar
   5    2    7 1
   6    3    4 ar
   7    3   24 1
   8    4    5 ar
   9    4   25 1
  10    5    6 ar
  11    5    8 1
  12    6   26 1
  13    7   17 1
  14    8    9 1
  15    9   10 1
  16    9   27 1
  17    9   28 1
  18   10   11 1
  19   10   29 1
  20   10   30 1
  21   11   12 1
  22   11   31 1
  23   11   32 1
  24   12   13 am
  25   12   16 2
  26   13   14 1
  27   13   33 1
  28   14   15 2
  29   14   18 1
  30   15   20 1
  31   17   34 1
  32   17   35 1
  33   17   36 1
  34   18   19 1
  35   19   20 2
  36   19   21 1
  37   20   22 1
  38   21   37 1
  39   21   38 1
  40   21   39 1
  41   22   40 1
  42   22   41 1
  43   22   42 1

#	End of record

