#	Name: ASD01660001
#	Creating user name:	WinNT
#	Creation time:	15. 06. 2019 19:22

#	Modifying user name:	WinNT
#	Modification time:	15. 06. 2019 19:22

#	Program:	/corina/corina34_cracker 3.40 0067  02.08.2006

@<TRIPOS>MOLECULE
ASD01660001
  13   12    0    0    0
SMALL
NO_CHARGES


@<TRIPOS>ATOM
   1 P1            -0.0191     1.5570     0.0106 P.3     
   2 O2             0.0021    -0.0041     0.0020 O.co2   
   3 O3             1.4456     2.0974    -0.0005 O.co2   
   4 O4            -2.9146     5.1724     4.6760 O.co2   
   5 O5            -0.7742     2.0742    -1.2542 O.co2   
   6 O6            -0.7727     2.0762     1.3352 O.3     
   7 P7            -1.1212     3.5331     1.9253 P.3     
   8 O8             0.0880     4.4925     1.6906 O.co2   
   9 O9            -2.3831     4.0996     1.2012 O.co2   
  10 O10           -1.4153     3.4165     3.5039 O.3     
  11 P11           -1.5136     4.4840     4.7050 P.3     
  12 O12           -0.3994     5.5642     4.5339 O.co2   
  13 O13           -1.3223     3.7507     6.0700 O.co2   
@<TRIPOS>BOND
   1    1    2 ar
   2    1    3 ar
   3    1    5 ar
   4    1    6 1
   5    4   11 ar
   6    6    7 1
   7    7    8 ar
   8    7    9 ar
   9    7   10 1
  10   10   11 1
  11   11   12 ar
  12   11   13 ar

#	End of record

