#	Name: ASD01881204
#	Creating user name:	WinNT
#	Creation time:	15. 06. 2019 19:42

#	Modifying user name:	WinNT
#	Modification time:	15. 06. 2019 19:42

#	Program:	/corina/corina34_cracker 3.40 0067  02.08.2006

@<TRIPOS>MOLECULE
ASD01881204
  39   41    0    0    0
SMALL
NO_CHARGES


@<TRIPOS>ATOM
   1 N1            -0.0159     1.3188     0.0093 N.ar    
   2 C2             0.0021    -0.0041     0.0020 C.ar    
   3 N3             1.1382    -0.6825    -0.0120 N.ar    
   4 C4             2.3024    -0.0537    -0.0198 C.ar    
   5 C5             2.3221     1.3316    -0.0130 C.ar    
   6 C6             1.1128     2.0110     0.0022 C.ar    
   7 C7             3.6281     2.0834    -0.0209 C.3     
   8 O8             4.7131     1.1535    -0.0353 O.3     
   9 C9             5.9677     1.6707    -0.0440 C.ar    
  10 C10            7.0698     0.8206    -0.0582 C.ar    
  11 C11            8.3385     1.3438    -0.0674 C.ar    
  12 C12            8.5332     2.7293    -0.0626 C.ar    
  13 C13            7.4225     3.5797    -0.0484 C.ar    
  14 C14            6.1504     3.0477    -0.0445 C.ar    
  15 C15            9.7124     0.7212    -0.0835 C.3     
  16 N16           10.6669     1.8357    -0.0873 N.am    
  17 C17            9.9819     2.9920    -0.0752 C.2     
  18 O18           10.4869     4.0981    -0.0751 O.2     
  19 Cl19           7.6453     5.3014    -0.0417 Cl      
  20 Br20           1.0766     3.9016     0.0115 Br      
  21 C21           12.6202     1.6720    -1.5498 C.3     
  22 C22           12.1263     1.7089    -0.1022 C.3     
  23 O23           -1.1714    -0.6807     0.0096 O.3     
  24 C24           -1.0974    -2.1078     0.0012 C.3     
  25 H25            3.2259    -0.6135    -0.0309 H       
  26 H26            3.6787     2.7145    -0.9082 H       
  27 H27            3.6947     2.7055     0.8717 H       
  28 H28            6.9266    -0.2499    -0.0616 H       
  29 H29            5.2928     3.7041    -0.0338 H       
  30 H30            9.8563     0.1077     0.8059 H       
  31 H31            9.8392     0.1162    -0.9813 H       
  32 H32           12.1762     0.8194    -2.0636 H       
  33 H33           12.3303     2.5926    -2.0562 H       
  34 H34           13.7061     1.5776    -1.5610 H       
  35 H35           12.5704     2.5615     0.4116 H       
  36 H36           12.4163     0.7882     0.4042 H       
  37 H37           -0.5570    -2.4488     0.8843 H       
  38 H38           -2.1049    -2.5239     0.0086 H       
  39 H39           -0.5740    -2.4392    -0.8956 H       
@<TRIPOS>BOND
   1    1    2 ar
   2    1    6 ar
   3    2    3 ar
   4    2   23 1
   5    3    4 ar
   6    4    5 ar
   7    4   25 1
   8    5    6 ar
   9    5    7 1
  10    6   20 1
  11    7    8 1
  12    7   26 1
  13    7   27 1
  14    8    9 1
  15    9   10 ar
  16    9   14 ar
  17   10   11 ar
  18   10   28 1
  19   11   12 ar
  20   11   15 1
  21   12   13 ar
  22   12   17 1
  23   13   14 ar
  24   13   19 1
  25   14   29 1
  26   15   16 1
  27   15   30 1
  28   15   31 1
  29   16   17 am
  30   16   22 1
  31   17   18 2
  32   21   22 1
  33   21   32 1
  34   21   33 1
  35   21   34 1
  36   22   35 1
  37   22   36 1
  38   23   24 1
  39   24   37 1
  40   24   38 1
  41   24   39 1

#	End of record

