#	Name: ASD07930050
#	Creating user name:	WinNT
#	Creation time:	15. 06. 2019 21:11

#	Modifying user name:	WinNT
#	Modification time:	15. 06. 2019 21:11

#	Program:	/corina/corina34_cracker 3.40 0067  02.08.2006

@<TRIPOS>MOLECULE
ASD07930050
  43   45    0    0    0
SMALL
NO_CHARGES


@<TRIPOS>ATOM
   1 C1            -0.0167     1.3790     0.0096 C.ar    
   2 C2             0.0021    -0.0041     0.0020 C.ar    
   3 C3            -1.1821    -0.7129     0.0100 C.ar    
   4 C4            -2.3982    -0.0326     0.0257 C.ar    
   5 C5            -2.4111     1.3609     0.0333 C.ar    
   6 C6            -1.2208     2.0595     0.0305 C.ar    
   7 C7            -5.9620    -0.9941     0.0545 C.2     
   8 S8             1.5403     2.3019    -0.0003 Du      
   9 F9             0.9491     3.2874    -1.1279 F       
  10 F10            2.1316     1.3165     1.1273 F       
  11 F11            0.9708     3.2751     1.1489 F       
  12 F12            2.1099     1.3287    -1.1495 F       
  13 F13            2.9253     3.1228    -0.0091 F       
  14 C14           -7.4072    -0.5672     0.0717 C.3     
  15 C15           -8.2642    -1.6132    -0.6474 C.3     
  16 C16           -8.0651    -1.5148    -2.1336 C.2     
  17 N17           -7.6167    -0.4012    -2.7310 N.am    
  18 C18           -7.2495     0.7098    -1.9912 C.2     
  19 N19           -7.5564     0.7145    -0.6410 N.pl3   
  20 C20           -7.8836    -0.4142     1.5176 C.3     
  21 N21           -6.6368     1.7156    -2.5459 N.2     
  22 O22           -8.3196    -2.4813    -2.8202 O.2     
  23 C23           -7.5133    -0.3596    -4.1917 C.3     
  24 C24           -4.9209    -0.1656     0.0495 C.2     
  25 C25           -3.6745    -0.7891     0.0338 C.2     
  26 C26           -3.7242    -2.1338     0.0262 C.2     
  27 S27           -5.4019    -2.6605     0.0457 S.3     
  28 H28            0.9451    -0.5303    -0.0105 H       
  29 H29           -1.1663    -1.7927     0.0037 H       
  30 H30           -3.3508     1.8932     0.0455 H       
  31 H31           -1.2297     3.1394     0.0364 H       
  32 H32           -7.9773    -2.6091    -0.3098 H       
  33 H33           -9.3148    -1.4432    -0.4118 H       
  34 H34           -7.8542     1.5188    -0.1880 H       
  35 H35           -7.2786     0.3395     2.0216 H       
  36 H36           -8.9290    -0.1055     1.5250 H       
  37 H37           -7.7827    -1.3675     2.0362 H       
  38 H38           -6.4299     1.6948    -3.4933 H       
  39 H39           -8.4498     0.0069    -4.6120 H       
  40 H40           -6.7003     0.3070    -4.4796 H       
  41 H41           -7.3127    -1.3618    -4.5704 H       
  42 H42           -5.0331     0.9085     0.0567 H       
  43 H43           -2.8657    -2.7889     0.0140 H       
@<TRIPOS>BOND
   1    1    2 ar
   2    1    8 1
   3    1    6 ar
   4    2    3 ar
   5    2   28 1
   6    3    4 ar
   7    3   29 1
   8    4    5 ar
   9    4   25 1
  10    5    6 ar
  11    5   30 1
  12    6   31 1
  13    7   14 1
  14    7   24 2
  15    7   27 1
  16    8    9 1
  17    8   10 1
  18    8   11 1
  19    8   12 1
  20    8   13 1
  21   14   15 1
  22   14   20 1
  23   14   19 1
  24   15   16 1
  25   15   32 1
  26   15   33 1
  27   16   17 am
  28   16   22 2
  29   17   18 1
  30   17   23 1
  31   18   19 1
  32   18   21 2
  33   19   34 1
  34   20   35 1
  35   20   36 1
  36   20   37 1
  37   21   38 1
  38   23   39 1
  39   23   40 1
  40   23   41 1
  41   24   25 1
  42   24   42 1
  43   25   26 2
  44   26   27 1
  45   26   43 1

#	End of record

