#	Name: ASD09200020
#	Creating user name:	WinNT
#	Creation time:	15. 06. 2019 21:21

#	Modifying user name:	WinNT
#	Modification time:	15. 06. 2019 21:21

#	Program:	/corina/corina34_cracker 3.40 0067  02.08.2006

@<TRIPOS>MOLECULE
ASD09200020
  55   58    0    0    0
SMALL
NO_CHARGES


@<TRIPOS>ATOM
   1 C1             0.2307     1.1660     0.1644 C.3     
   2 C2             0.4795    -0.3361     0.3123 C.3     
   3 C3             1.2641    -0.5728     1.6040 C.3     
   4 C4             2.6041     0.1625     1.5454 C.3     
   5 N5             2.4313     1.5678     1.2111 N.3     
   6 C6             1.5631     1.9141     0.0964 C.3     
   7 C7             2.2326     1.6779    -1.2564 C.3     
   8 C8             1.2475     3.4240     0.1968 C.3     
   9 C9             3.2310     0.0877     2.9563 C.3     
  10 C10            3.5557    -0.5501     0.5859 C.3     
  11 N11           -0.8108    -1.0319     0.3982 N.am    
  12 C12           -0.9041    -2.3260     0.0336 C.2     
  13 S13            0.2649    -3.2161    -0.4969 S.o     
  14 C14           -0.6575    -4.7123    -0.7324 C.2     
  15 C15           -1.9130    -4.3783    -0.3477 C.2     
  16 N16           -2.0131    -3.0741     0.0684 N.am    
  17 C17           -3.0484    -5.3163    -0.3688 C.ar    
  18 C18           -2.8555    -6.6314    -0.8035 C.ar    
  19 C19           -3.9412    -7.5167    -0.8197 C.ar    
  20 C20           -5.2172    -7.0650    -0.3954 C.ar    
  21 C21           -5.3798    -5.7315     0.0378 C.ar    
  22 C22           -4.3180    -4.8859     0.0534 C.ar    
  23 C23           -3.7854    -8.8482    -1.2512 C.ar    
  24 C24           -4.8604    -9.6893    -1.2572 C.ar    
  25 C25           -6.1123    -9.2504    -0.8421 C.ar    
  26 C26           -6.3004    -7.9534    -0.4135 C.ar    
  27 H27           -0.3360     1.3518    -0.7495 H       
  28 H28           -0.3431     1.5251     1.0203 H       
  29 H29            1.0299    -0.7169    -0.5428 H       
  30 H30            0.6856    -0.2045     2.4529 H       
  31 H31            1.4427    -1.6419     1.7297 H       
  32 H32            2.2430     2.1308     2.0270 H       
  33 H33            2.3953     0.6097    -1.3997 H       
  34 H34            1.5901     2.0573    -2.0510 H       
  35 H35            3.1900     2.1982    -1.2838 H       
  36 H36            2.1756     3.9934     0.1452 H       
  37 H37            0.5966     3.7147    -0.6277 H       
  38 H38            0.7479     3.6286     1.1437 H       
  39 H39            3.3790    -0.9561     3.2333 H       
  40 H40            4.1916     0.6029     2.9549 H       
  41 H41            2.5646     0.5635     3.6758 H       
  42 H42            3.0696    -0.6755    -0.3816 H       
  43 H43            4.4609     0.0447     0.4634 H       
  44 H44            3.8156    -1.5279     0.9914 H       
  45 H45           -1.5959    -0.5600     0.7173 H       
  46 H46            0.4405    -2.7679    -1.7528 H       
  47 H47           -0.3023    -5.6649    -1.0969 H       
  48 H48           -2.8583    -2.7063     0.3705 H       
  49 H49           -1.8784    -6.9616    -1.1240 H       
  50 H50           -6.3500    -5.3845     0.3614 H       
  51 H51           -4.4522    -3.8673     0.3865 H       
  52 H52           -2.8185    -9.2025    -1.5768 H       
  53 H53           -4.7367   -10.7095    -1.5892 H       
  54 H54           -6.9484    -9.9339    -0.8558 H       
  55 H55           -7.2778    -7.6241    -0.0931 H       
@<TRIPOS>BOND
   1    1    2 1
   2    1    6 1
   3    1   27 1
   4    1   28 1
   5    2    3 1
   6    2   11 1
   7    2   29 1
   8    3    4 1
   9    3   30 1
  10    3   31 1
  11    4    5 1
  12    4    9 1
  13    4   10 1
  14    5    6 1
  15    5   32 1
  16    6    7 1
  17    6    8 1
  18    7   33 1
  19    7   34 1
  20    7   35 1
  21    8   36 1
  22    8   37 1
  23    8   38 1
  24    9   39 1
  25    9   40 1
  26    9   41 1
  27   10   42 1
  28   10   43 1
  29   10   44 1
  30   11   12 am
  31   11   45 1
  32   12   13 2
  33   12   16 am
  34   13   14 1
  35   13   46 1
  36   14   15 2
  37   14   47 1
  38   15   16 1
  39   15   17 1
  40   16   48 1
  41   17   18 ar
  42   17   22 ar
  43   18   19 ar
  44   18   49 1
  45   19   20 ar
  46   19   23 ar
  47   20   21 ar
  48   20   26 ar
  49   21   22 ar
  50   21   50 1
  51   22   51 1
  52   23   24 ar
  53   23   52 1
  54   24   25 ar
  55   24   53 1
  56   25   26 ar
  57   25   54 1
  58   26   55 1

#	End of record

