#	Name: ASD01040034
#	Creating user name:	WinNT
#	Creation time:	15. 06. 2019 18:58

#	Modifying user name:	WinNT
#	Modification time:	15. 06. 2019 18:58

#	Program:	/corina/corina34_cracker 3.40 0067  02.08.2006

@<TRIPOS>MOLECULE
ASD01040034
  48   51    0    0    0
SMALL
NO_CHARGES


@<TRIPOS>ATOM
   1 C1            -0.0186     1.5173     0.0104 C.3     
   2 C2             0.0021    -0.0041     0.0020 C.3     
   3 C3             0.4783    -0.6096     1.3144 C.3     
   4 C4            -0.2550    -0.0392     2.5264 C.3     
   5 C5            -1.7398    -0.3938     2.5090 C.3     
   6 C6            -2.4836     0.2407     1.3433 C.3     
   7 C7            -2.2346     1.7353     1.2061 C.3     
   8 C8            -0.7498     2.0908     1.2220 C.3     
   9 C9            -0.1371     1.4754     2.4695 C.2     
  10 C10            0.4498     2.1978     3.4268 C.2     
  11 C11            0.5265     3.6731     3.3005 C.ar    
  12 C12            1.0249     1.5247     4.6161 C.ar    
  13 C13           -0.1528     4.4880     4.2052 C.ar    
  14 C14           -0.0791     5.8597     4.0854 C.ar    
  15 C15            0.6705     6.4296     3.0651 C.ar    
  16 C16            1.3478     5.6208     2.1622 C.ar    
  17 C17            1.2828     4.2485     2.2802 C.ar    
  18 C18            0.1928     0.8445     5.5044 C.ar    
  19 C19            0.7314     0.2147     6.6065 C.ar    
  20 C20            2.1007     0.2574     6.8322 C.ar    
  21 C21            2.9319     0.9343     5.9497 C.ar    
  22 C22            2.3996     1.5657     4.8455 C.ar    
  23 O23            2.6284    -0.3642     7.9190 O.3     
  24 O24            0.7412     7.7815     2.9496 O.3     
  25 H25            1.0132     1.8897     0.0025 H       
  26 H26           -0.5050     1.8740    -0.9059 H       
  27 H27           -0.9373    -0.4219    -0.3210 H       
  28 H28            0.7370    -0.3096    -0.7761 H       
  29 H29            0.3301    -1.6960     1.2823 H       
  30 H30            1.5540    -0.4261     1.4244 H       
  31 H31            0.2094    -0.4090     3.4549 H       
  32 H32           -1.8490    -1.4841     2.4525 H       
  33 H33           -2.2000    -0.0654     3.4491 H       
  34 H34           -2.3154    -0.2862     0.4182 H       
  35 H35           -3.5701     0.1158     1.5520 H       
  36 H36           -2.6790     2.0876     0.2668 H       
  37 H37           -2.7397     2.2597     2.0265 H       
  38 H38           -0.6253     3.1854     1.2530 H       
  39 H39           -0.7364     4.0453     4.9989 H       
  40 H40           -0.6054     6.4914     4.7856 H       
  41 H41            1.9298     6.0671     1.3695 H       
  42 H42            1.8101     3.6200     1.5778 H       
  43 H43           -0.8724     0.8113     5.3296 H       
  44 H44            0.0874    -0.3120     7.2951 H       
  45 H45            3.9966     0.9660     6.1282 H       
  46 H46            3.0473     2.0880     4.1569 H       
  47 H47            2.8819    -1.2839     7.7616 H       
  48 H48            1.4714     8.1807     3.4420 H       
@<TRIPOS>BOND
   1    1    2 1
   2    1   25 1
   3    1   26 1
   4    1    8 1
   5    2   27 1
   6    2   28 1
   7    2    3 1
   8    3   29 1
   9    3   30 1
  10    3    4 1
  11    4   31 1
  12    4    5 1
  13    4    9 1
  14    5    6 1
  15    5   32 1
  16    5   33 1
  17    6    7 1
  18    6   34 1
  19    6   35 1
  20    7   36 1
  21    7   37 1
  22    7    8 1
  23    8   38 1
  24    8    9 1
  25    9   10 2
  26   10   11 1
  27   10   12 1
  28   11   13 ar
  29   11   17 ar
  30   12   22 ar
  31   12   18 ar
  32   13   14 ar
  33   13   39 1
  34   14   40 1
  35   14   15 ar
  36   15   24 1
  37   15   16 ar
  38   16   41 1
  39   16   17 ar
  40   17   42 1
  41   18   43 1
  42   18   19 ar
  43   19   20 ar
  44   19   44 1
  45   20   21 ar
  46   20   23 1
  47   21   22 ar
  48   21   45 1
  49   22   46 1
  50   23   47 1
  51   24   48 1

#	End of record

