#	Name: ASD01900806
#	Creating user name:	WinNT
#	Creation time:	15. 06. 2019 19:52

#	Modifying user name:	WinNT
#	Modification time:	15. 06. 2019 19:52

#	Program:	/corina/corina34_cracker 3.40 0067  02.08.2006

@<TRIPOS>MOLECULE
ASD01900806
  30   32    0    0    0
SMALL
NO_CHARGES


@<TRIPOS>ATOM
   1 C1            -0.0194     1.3932    -0.0179 C.ar    
   2 N2             0.0021    -0.0041     0.0020 N.pl3   
   3 C3            -1.1835    -0.7141     0.1142 C.2     
   4 C4             1.0034     2.1138     0.5859 C.ar    
   5 C5            -1.0606     2.0645    -0.6465 C.ar    
   6 C6            -1.0787     3.4453    -0.6642 C.ar    
   7 C7            -0.0620     4.1596    -0.0572 C.ar    
   8 C8             0.9790     3.4944     0.5645 C.ar    
   9 N9            -1.2970    -2.0042     0.0271 N.2     
  10 C10           -2.5148    -2.5105     0.1601 C.2     
  11 C11           -3.4924    -1.6144     0.3712 C.2     
  12 S12           -2.7702    -0.0074     0.4047 S.3     
  13 C13           -2.7801    -3.9700     0.0806 C.2     
  14 C14           -1.8524    -4.9472    -0.1298 C.2     
  15 N15           -2.5003    -6.1314    -0.1323 N.pl3   
  16 N16           -3.8619    -5.8847     0.0815 N.2     
  17 C17           -4.0342    -4.5960     0.2150 C.2     
  18 C18           -0.3722    -4.7420    -0.3248 C.3     
  19 H19            0.8464    -0.4771    -0.0627 H       
  20 H20            1.8164     1.5949     1.0719 H       
  21 H21           -1.8547     1.5073    -1.1210 H       
  22 H22           -1.8876     3.9679    -1.1530 H       
  23 H23           -0.0784     5.2394    -0.0728 H       
  24 H24            1.7713     4.0553     1.0379 H       
  25 H25           -4.5404    -1.8402     0.5022 H       
  26 H26           -2.0932    -7.0025    -0.2606 H       
  27 H27           -4.9759    -4.0972     0.3907 H       
  28 H28            0.1295    -4.7735     0.6423 H       
  29 H29            0.0228    -5.5310    -0.9649 H       
  30 H30           -0.1982    -3.7732    -0.7930 H       
@<TRIPOS>BOND
   1    1    2 1
   2    1    4 ar
   3    1    5 ar
   4    2    3 1
   5    2   19 1
   6    3    9 2
   7    3   12 1
   8    4    8 ar
   9    4   20 1
  10    5    6 ar
  11    5   21 1
  12    6    7 ar
  13    6   22 1
  14    7    8 ar
  15    7   23 1
  16    8   24 1
  17    9   10 1
  18   10   11 2
  19   10   13 1
  20   11   12 1
  21   11   25 1
  22   13   14 2
  23   13   17 1
  24   14   15 1
  25   14   18 1
  26   15   16 1
  27   15   26 1
  28   16   17 2
  29   17   27 1
  30   18   28 1
  31   18   29 1
  32   18   30 1

#	End of record

