#	Name: ASD04220029
#	Creating user name:	WinNT
#	Creation time:	15. 06. 2019 20:48

#	Modifying user name:	WinNT
#	Modification time:	15. 06. 2019 20:48

#	Program:	/corina/corina34_cracker 3.40 0067  02.08.2006

@<TRIPOS>MOLECULE
ASD04220029
  46   48    0    0    0
SMALL
NO_CHARGES


@<TRIPOS>ATOM
   1 C1             0.0508     1.6680    -0.0419 C.3     
   2 N2            -0.0579     0.2126     0.1055 N.am    
   3 C3             0.7944    -0.6192    -0.7604 C.3     
   4 C4             2.2507    -0.3428    -0.3900 C.3     
   5 C5             2.5089     1.1381    -0.2979 C.ar    
   6 C6             3.8318     1.5701    -0.3858 C.ar    
   7 C7             4.1401     2.9162    -0.2994 C.ar    
   8 C8             3.1302     3.8426    -0.1243 C.ar    
   9 C9             1.8157     3.4171    -0.0408 C.ar    
  10 C10            1.5037     2.0624    -0.1310 C.ar    
  11 C11            0.4794    -2.0761    -0.5381 C.2     
  12 O12            1.1347    -2.7234     0.2438 O.2     
  13 O13           -0.5293    -2.6545    -1.2087 O.3     
  14 O14            0.8211     4.3284     0.1309 O.3     
  15 O15            4.8278     0.6603    -0.5574 O.3     
  16 C16           -0.9032    -0.3407     0.9975 C.2     
  17 C17           -1.6729     0.5367     1.9508 C.3     
  18 C18           -2.5527    -0.3351     2.8490 C.3     
  19 O19           -1.0445    -1.5447     1.0329 O.2     
  20 C20           -3.3224     0.5423     3.8023 C.ar    
  21 C21           -4.5231     1.1122     3.4049 C.ar    
  22 C22           -5.2316     1.9192     4.2824 C.ar    
  23 C23           -4.7418     2.1552     5.5524 C.ar    
  24 C24           -3.5417     1.5852     5.9499 C.ar    
  25 C25           -2.8352     0.7744     5.0736 C.ar    
  26 O26           -3.0597     1.8175     7.2000 O.3     
  27 O27           -5.0051     0.8798     2.1548 O.3     
  28 H28           -0.4661     1.9803    -0.9493 H       
  29 H29           -0.4050     2.1549     0.8202 H       
  30 H30            0.6239    -0.3595    -1.8051 H       
  31 H31            2.4699    -0.8053     0.5724 H       
  32 H32            2.9020    -0.7736    -1.1505 H       
  33 H33            5.1675     3.2419    -0.3684 H       
  34 H34            3.3653     4.8943    -0.0531 H       
  35 H35           -0.6934    -3.5911    -1.0328 H       
  36 H36            0.4529     4.6692    -0.6957 H       
  37 H37            5.0332     0.4720    -1.4834 H       
  38 H38           -0.9749     1.1041     2.5664 H       
  39 H39           -2.3007     1.2249     1.3849 H       
  40 H40           -3.2507    -0.9025     2.2334 H       
  41 H41           -1.9249    -1.0233     3.4149 H       
  42 H42           -6.1660     2.3634     3.9727 H       
  43 H43           -5.2934     2.7840     6.2357 H       
  44 H44           -1.9026     0.3271     5.3845 H       
  45 H45           -3.3557     1.1768     7.8610 H       
  46 H46           -5.5797     0.1045     2.0926 H       
@<TRIPOS>BOND
   1    1    2 1
   2    1   10 1
   3    1   28 1
   4    1   29 1
   5    2    3 1
   6    2   16 am
   7    3    4 1
   8    3   11 1
   9    3   30 1
  10    4    5 1
  11    4   31 1
  12    4   32 1
  13    5    6 ar
  14    5   10 ar
  15    6    7 ar
  16    6   15 1
  17    7    8 ar
  18    7   33 1
  19    8    9 ar
  20    8   34 1
  21    9   10 ar
  22    9   14 1
  23   11   12 2
  24   11   13 1
  25   13   35 1
  26   14   36 1
  27   15   37 1
  28   16   17 1
  29   16   19 2
  30   17   18 1
  31   17   38 1
  32   17   39 1
  33   18   20 1
  34   18   40 1
  35   18   41 1
  36   20   21 ar
  37   20   25 ar
  38   21   22 ar
  39   21   27 1
  40   22   23 ar
  41   22   42 1
  42   23   24 ar
  43   23   43 1
  44   24   25 ar
  45   24   26 1
  46   25   44 1
  47   26   45 1
  48   27   46 1

#	End of record

