#	Name: ASD05490224
#	Creating user name:	WinNT
#	Creation time:	15. 06. 2019 21:01

#	Modifying user name:	WinNT
#	Modification time:	15. 06. 2019 21:01

#	Program:	/corina/corina34_cracker 3.40 0067  02.08.2006

@<TRIPOS>MOLECULE
ASD05490224
  68   70    0    0    0
SMALL
NO_CHARGES


@<TRIPOS>ATOM
   1 N1             0.5807     1.5820     0.4871 N.ar    
   2 C2             0.4597     0.2818     0.7085 C.ar    
   3 C3             1.5301    -0.5745     0.5075 C.ar    
   4 C4             2.7452    -0.0517     0.0662 C.ar    
   5 C5             2.8345     1.3206    -0.1564 C.ar    
   6 C6             1.7199     2.1149     0.0673 C.ar    
   7 N7             3.8434    -0.8816    -0.1466 N.3     
   8 C8             4.2833    -1.5049     1.1088 C.3     
   9 C9             3.5453    -1.8991    -1.1634 C.3     
  10 C10            3.5654    -1.2645    -2.5301 C.ar    
  11 C11            4.7592    -1.1364    -3.2152 C.ar    
  12 C12            4.7777    -0.5543    -4.4688 C.ar    
  13 C13            3.6023    -0.1005    -5.0376 C.ar    
  14 C14            2.4084    -0.2294    -4.3529 C.ar    
  15 C15            2.3893    -0.8155    -3.1010 C.ar    
  16 C16            3.2071     0.1040    -8.7546 C.3     
  17 N17            3.4307    -0.5002    -7.4283 N.3     
  18 C18            2.2737    -1.3607    -7.1019 C.3     
  19 C19            1.6653    -1.7429    -8.4743 C.3     
  20 C20            1.8577    -0.4305    -9.2788 C.3     
  21 N21            1.7978     3.4862    -0.1517 N.pl3   
  22 O22           -0.7268    -0.2176     1.1379 O.3     
  23 C23           -1.7928     0.7151     1.3273 C.3     
  24 C24           -3.0405    -0.0275     1.8097 C.3     
  25 O25           -2.7928    -0.5859     3.1015 O.3     
  26 C26           -3.9012    -1.3047     3.6463 C.3     
  27 C27            3.6226     0.5350    -6.4038 C.3     
  28 Cl28           1.3610    -2.2770     0.8018 Cl      
  29 N29            4.1029     1.9232    -0.6247 N.pl3   
  30 O30            4.3230     2.0285    -1.8180 O.2     
  31 O31            4.9263     2.3138     0.1833 O.2     
  32 C32            5.6665    -2.0752     0.9288 C.2     
  33 O33            6.2528    -1.9198    -0.1162 O.2     
  34 O34            6.2473    -2.7559     1.9293 O.3     
  35 C35            8.0744    -4.0171     2.9301 C.3     
  36 C36            7.5805    -3.2768     1.6855 C.3     
  37 H37            4.2993    -0.7557     1.9003 H       
  38 H38            3.5931    -2.3041     1.3789 H       
  39 H39            4.2955    -2.6885    -1.1183 H       
  40 H40            2.5593    -2.3236    -0.9744 H       
  41 H41            5.6775    -1.4909    -2.7708 H       
  42 H42            5.7105    -0.4536    -5.0038 H       
  43 H43            1.4901     0.1254    -4.7971 H       
  44 H44            1.4565    -0.9162    -2.5661 H       
  45 H45            3.1666     1.1896    -8.6655 H       
  46 H46            4.0094    -0.1848    -9.4336 H       
  47 H47            2.6029    -2.2538    -6.5707 H       
  48 H48            1.5472    -0.8093    -6.5050 H       
  49 H49            2.2168    -2.5650    -8.9305 H       
  50 H50            0.6082    -1.9902    -8.3775 H       
  51 H51            1.0545     0.2744    -9.0643 H       
  52 H52            1.9144    -0.6383   -10.3473 H       
  53 H53            2.6284     3.8818    -0.4591 H       
  54 H54            1.0216     4.0469     0.0030 H       
  55 H55           -1.5000     1.4553     2.0718 H       
  56 H56           -2.0099     1.2153     0.3834 H       
  57 H57           -3.8773     0.6685     1.8690 H       
  58 H58           -3.2816    -0.8266     1.1086 H       
  59 H59           -4.7559    -0.6352     3.7438 H       
  60 H60           -4.1601    -2.1302     2.9833 H       
  61 H61           -3.6332    -1.6968     4.6273 H       
  62 H62            2.8203     1.2695    -6.4748 H       
  63 H63            4.5818     1.0283    -6.5609 H       
  64 H64            8.1020    -3.3290     3.7750 H       
  65 H65            7.3977    -4.8415     3.1548 H       
  66 H66            9.0752    -4.4081     2.7470 H       
  67 H67            7.5529    -3.9648     0.8405 H       
  68 H68            8.2572    -2.4523     1.4607 H       
@<TRIPOS>BOND
   1    1    2 ar
   2    1    6 ar
   3    2    3 ar
   4    2   22 1
   5    3    4 ar
   6    3   28 1
   7    4    5 ar
   8    4    7 1
   9    5    6 ar
  10    5   29 1
  11    6   21 1
  12    7    8 1
  13    7    9 1
  14    8   32 1
  15    8   37 1
  16    8   38 1
  17    9   10 1
  18    9   39 1
  19    9   40 1
  20   10   11 ar
  21   10   15 ar
  22   11   12 ar
  23   11   41 1
  24   12   13 ar
  25   12   42 1
  26   13   14 ar
  27   13   27 1
  28   14   15 ar
  29   14   43 1
  30   15   44 1
  31   16   17 1
  32   16   20 1
  33   16   45 1
  34   16   46 1
  35   17   18 1
  36   17   27 1
  37   18   19 1
  38   18   47 1
  39   18   48 1
  40   19   20 1
  41   19   49 1
  42   19   50 1
  43   20   51 1
  44   20   52 1
  45   21   53 1
  46   21   54 1
  47   22   23 1
  48   23   24 1
  49   23   55 1
  50   23   56 1
  51   24   25 1
  52   24   57 1
  53   24   58 1
  54   25   26 1
  55   26   59 1
  56   26   60 1
  57   26   61 1
  58   27   62 1
  59   27   63 1
  60   29   30 2
  61   29   31 2
  62   32   33 2
  63   32   34 1
  64   34   36 1
  65   35   36 1
  66   35   64 1
  67   35   65 1
  68   35   66 1
  69   36   67 1
  70   36   68 1

#	End of record

