#	Name: ASD01900798
#	Creating user name:	WinNT
#	Creation time:	15. 06. 2019 19:52

#	Modifying user name:	WinNT
#	Modification time:	15. 06. 2019 19:52

#	Program:	/corina/corina34_cracker 3.40 0067  02.08.2006

@<TRIPOS>MOLECULE
ASD01900798
  32   35    0    0    0
SMALL
NO_CHARGES


@<TRIPOS>ATOM
   1 C1             1.2101    -0.6803    -0.0132 C.ar    
   2 N2             0.0021    -0.0041     0.0020 N.pl3   
   3 C3            -1.2034    -0.7177    -0.0963 C.2     
   4 N4             2.3394     0.0129    -0.0262 N.ar    
   5 N5             1.2096    -2.0055    -0.0089 N.ar    
   6 C6             2.3461    -2.6820    -0.0227 C.ar    
   7 C7             3.5459    -1.9880    -0.0417 C.ar    
   8 C8             3.5102    -0.6023    -0.0405 C.ar    
   9 N9            -1.2333    -2.0188    -0.3007 N.2     
  10 C10           -2.4075    -2.5785    -0.3747 C.2     
  11 S11           -3.6494    -1.3468    -0.1659 S.3     
  12 C12           -2.3979    -0.1196     0.0175 C.2     
  13 C13           -2.6580    -4.0188    -0.5992 C.2     
  14 C14           -1.7087    -4.9886    -0.7635 C.2     
  15 C15           -3.9199    -4.6441    -0.6767 C.2     
  16 N16           -3.7281    -5.9197    -0.8818 N.2     
  17 N17           -2.3502    -6.1604    -0.9401 N.pl3   
  18 C18           -5.2562    -3.9599    -0.5449 C.3     
  19 C19           -6.2162    -4.0501    -1.7329 C.3     
  20 C20           -6.4990    -4.8480    -0.4585 C.3     
  21 H21           -0.0116     0.9626     0.0806 H       
  22 H22            2.3394    -3.7619    -0.0187 H       
  23 H23            4.4883    -2.5156    -0.0533 H       
  24 H24            4.4271    -0.0319    -0.0555 H       
  25 H25           -2.5647     0.9338     0.1872 H       
  26 H26           -0.6387    -4.8422    -0.7537 H       
  27 H27           -1.9295    -7.0227    -1.0828 H       
  28 H28           -5.2563    -3.0359     0.0332 H       
  29 H29           -6.8481    -3.1855    -1.9360 H       
  30 H30           -5.8812    -4.6042    -2.6097 H       
  31 H31           -6.3502    -5.9272    -0.4969 H       
  32 H32           -7.3171    -4.5084     0.1768 H       
@<TRIPOS>BOND
   1    1    2 1
   2    1    4 ar
   3    1    5 ar
   4    2    3 1
   5    2   21 1
   6    3    9 1
   7    3   12 2
   8    4    8 ar
   9    5    6 ar
  10    6    7 ar
  11    6   22 1
  12    7    8 ar
  13    7   23 1
  14    8   24 1
  15    9   10 2
  16   10   11 1
  17   10   13 1
  18   11   12 1
  19   12   25 1
  20   13   14 2
  21   13   15 1
  22   14   17 1
  23   14   26 1
  24   15   16 2
  25   15   18 1
  26   16   17 1
  27   17   27 1
  28   18   19 1
  29   18   20 1
  30   18   28 1
  31   19   20 1
  32   19   29 1
  33   19   30 1
  34   20   31 1
  35   20   32 1

#	End of record

