#	Name: ASD01917775
#	Creating user name:	WinNT
#	Creation time:	15. 06. 2019 20:10

#	Modifying user name:	WinNT
#	Modification time:	15. 06. 2019 20:10

#	Program:	/corina/corina34_cracker 3.40 0067  02.08.2006

@<TRIPOS>MOLECULE
ASD01917775
  43   46    0    0    0
SMALL
NO_CHARGES


@<TRIPOS>ATOM
   1 C1            -0.0139     1.3193    -0.0035 C.2     
   2 C2            -0.0103    -0.0275     0.0056 C.2     
   3 C3            -1.2497    -0.8857     0.0246 C.3     
   4 C4            -2.4380    -0.0295     0.4798 C.3     
   5 N5            -2.4046     1.2580    -0.2301 N.am    
   6 C6            -1.2656     2.1616     0.0143 C.3     
   7 C7            -3.3897     1.6029    -1.0828 C.2     
   8 O8            -4.2640     0.8041    -1.3564 O.2     
   9 C9            -3.4069     2.9530    -1.6852 C.ar    
  10 O10            1.2626     1.7246    -0.0246 O.3     
  11 C11            2.0354     0.6269    -0.0248 C.2     
  12 N12            1.2680    -0.4284    -0.0062 N.2     
  13 C13            3.5422     0.6153    -0.0439 C.3     
  14 O14            4.0014     0.6004    -1.3970 O.3     
  15 C15            5.3462     0.5885    -1.5921 C.ar    
  16 C16            5.8608     0.5737    -2.8797 C.ar    
  17 C17            7.2307     0.5621    -3.0754 C.ar    
  18 C18            8.0859     0.5648    -1.9863 C.ar    
  19 C19            7.5731     0.5796    -0.7025 C.ar    
  20 C20            6.2063     0.5970    -0.5031 C.ar    
  21 C21           -3.8638     3.1316    -2.9919 C.ar    
  22 C22           -3.8777     4.3941    -3.5479 C.ar    
  23 C23           -3.4396     5.4817    -2.8134 C.ar    
  24 C24           -2.9854     5.3115    -1.5176 C.ar    
  25 C25           -2.9717     4.0552    -0.9477 C.ar    
  26 F26            7.7338     0.5476    -4.3292 F       
  27 H27           -1.4409    -1.2734    -0.9760 H       
  28 H28           -1.1095    -1.7144     0.7188 H       
  29 H29           -3.3693    -0.5477     0.2509 H       
  30 H30           -2.3714     0.1448     1.5537 H       
  31 H31           -1.3752     2.6420     0.9866 H       
  32 H32           -1.2162     2.9167    -0.7701 H       
  33 H33            3.9188     1.5067     0.4578 H       
  34 H34            3.9053    -0.2731     0.4728 H       
  35 H35            5.1933     0.5708    -3.7287 H       
  36 H36            9.1549     0.5550    -2.1399 H       
  37 H37            8.2419     0.5817     0.1455 H       
  38 H38            5.8070     0.6089     0.5003 H       
  39 H39           -4.2054     2.2834    -3.5665 H       
  40 H40           -4.2310     4.5337    -4.5589 H       
  41 H41           -3.4518     6.4678    -3.2536 H       
  42 H42           -2.6448     6.1646    -0.9496 H       
  43 H43           -2.6173     3.9237     0.0639 H       
@<TRIPOS>BOND
   1    1    2 2
   2    1   10 1
   3    1    6 1
   4    2    3 1
   5    2   12 1
   6    3    4 1
   7    3   27 1
   8    3   28 1
   9    4    5 1
  10    4   29 1
  11    4   30 1
  12    5    6 1
  13    5    7 am
  14    6   31 1
  15    6   32 1
  16    7    8 2
  17    7    9 1
  18    9   21 ar
  19    9   25 ar
  20   10   11 1
  21   11   12 2
  22   11   13 1
  23   13   14 1
  24   13   33 1
  25   13   34 1
  26   14   15 1
  27   15   16 ar
  28   15   20 ar
  29   16   17 ar
  30   16   35 1
  31   17   18 ar
  32   17   26 1
  33   18   19 ar
  34   18   36 1
  35   19   20 ar
  36   19   37 1
  37   20   38 1
  38   21   22 ar
  39   21   39 1
  40   22   23 ar
  41   22   40 1
  42   23   24 ar
  43   23   41 1
  44   24   25 ar
  45   24   42 1
  46   25   43 1

#	End of record

