#	Name: ASD02570010
#	Creating user name:	WinNT
#	Creation time:	15. 06. 2019 20:25

#	Modifying user name:	WinNT
#	Modification time:	15. 06. 2019 20:25

#	Program:	/corina/corina34_cracker 3.40 0067  02.08.2006

@<TRIPOS>MOLECULE
ASD02570010
  50   50    0    0    0
SMALL
NO_CHARGES


@<TRIPOS>ATOM
   1 C1             0.7900    -0.2561     0.1477 C.3     
   2 C2            -0.3154     0.1126    -0.8493 C.3     
   3 C3            -0.3027     1.6292    -1.0506 C.3     
   4 C4             1.0912     2.0990    -1.3496 C.2     
   5 C5             2.1751     1.3812    -1.1075 C.2     
   6 C6             2.1460     0.0038    -0.5117 C.3     
   7 C7             1.2652     3.4655    -1.9606 C.3     
   8 C8             3.4359     1.9443    -1.4294 C.2     
   9 C9             3.8105     3.1295    -0.8810 C.2     
  10 C10            3.2522    -0.1182     0.5382 C.3     
  11 C11            2.3805    -1.0308    -1.6142 C.3     
  12 C12            5.0018     3.7512    -1.2962 C.2     
  13 C13            5.3778     4.9412    -0.7456 C.2     
  14 C14            5.8627     3.1027    -2.3494 C.3     
  15 C15            6.5662     5.5614    -1.1598 C.2     
  16 C16            6.9427     6.7527    -0.6086 C.2     
  17 C17            8.1309     7.3728    -1.0227 C.2     
  18 C18            8.5654     8.5026    -0.3943 C.2     
  19 C19            8.9273     6.7906    -2.1620 C.3     
  20 C20            7.7617     9.1162     0.5879 C.2     
  21 O21            6.7326     8.5791     0.9551 O.2     
  22 O22            8.1333    10.2999     1.1215 O.3     
  23 H23            0.6948     0.3577     1.0434 H       
  24 H24            0.7076    -1.3103     0.4124 H       
  25 H25           -0.1304    -0.3847    -1.8014 H       
  26 H26           -1.2831    -0.1962    -0.4537 H       
  27 H27           -0.9577     1.8889    -1.8822 H       
  28 H28           -0.6618     2.1171    -0.1444 H       
  29 H29            0.2865     3.9078    -2.1464 H       
  30 H30            1.8269     4.1009    -1.2758 H       
  31 H31            1.8082     3.3764    -2.9015 H       
  32 H32            4.0985     1.4311    -2.1105 H       
  33 H33            3.1935     3.5943    -0.1262 H       
  34 H34            3.1438     0.6783     1.2744 H       
  35 H35            3.1763    -1.0853     1.0352 H       
  36 H36            4.2246    -0.0345     0.0528 H       
  37 H37            3.3514    -0.8546    -2.0772 H       
  38 H38            2.3597    -2.0318    -1.1834 H       
  39 H39            1.5975    -0.9430    -2.3674 H       
  40 H40            4.7608     5.4060     0.0092 H       
  41 H41            5.5530     3.4486    -3.3355 H       
  42 H42            6.9059     3.3706    -2.1815 H       
  43 H43            5.7521     2.0198    -2.2929 H       
  44 H44            7.1832     5.0966    -1.9146 H       
  45 H45            6.3257     7.2174     0.1462 H       
  46 H46            9.5252     8.9271    -0.6492 H       
  47 H47            8.5874     7.2249    -3.1022 H       
  48 H48            9.9842     7.0157    -2.0189 H       
  49 H49            8.7863     5.7101    -2.1890 H       
  50 H50            7.5196    10.6416     1.7861 H       
@<TRIPOS>BOND
   1    1    2 1
   2    1    6 1
   3    1   23 1
   4    1   24 1
   5    2    3 1
   6    2   25 1
   7    2   26 1
   8    3    4 1
   9    3   27 1
  10    3   28 1
  11    4    5 2
  12    4    7 1
  13    5    6 1
  14    5    8 1
  15    6   10 1
  16    6   11 1
  17    7   29 1
  18    7   30 1
  19    7   31 1
  20    8    9 2
  21    8   32 1
  22    9   12 1
  23    9   33 1
  24   10   34 1
  25   10   35 1
  26   10   36 1
  27   11   37 1
  28   11   38 1
  29   11   39 1
  30   12   13 2
  31   12   14 1
  32   13   15 1
  33   13   40 1
  34   14   41 1
  35   14   42 1
  36   14   43 1
  37   15   16 2
  38   15   44 1
  39   16   17 1
  40   16   45 1
  41   17   18 2
  42   17   19 1
  43   18   20 1
  44   18   46 1
  45   19   47 1
  46   19   48 1
  47   19   49 1
  48   20   21 2
  49   20   22 1
  50   22   50 1

#	End of record

