#	Name: ASD01811950
#	Creating user name:	WinNT
#	Creation time:	15. 06. 2019 19:27

#	Modifying user name:	WinNT
#	Modification time:	15. 06. 2019 19:27

#	Program:	/corina/corina34_cracker 3.40 0067  02.08.2006

@<TRIPOS>MOLECULE
ASD01811950
  47   51    0    0    0
SMALL
NO_CHARGES


@<TRIPOS>ATOM
   1 C1            -0.0168     1.3869     0.0097 C.ar    
   2 C2             0.0021    -0.0041     0.0020 C.ar    
   3 C3             1.1801    -0.6897    -0.0129 C.ar    
   4 C4             2.3948     0.0129    -0.0207 C.ar    
   5 C5             2.3717     1.4290    -0.0129 C.ar    
   6 C6             1.1455     2.1015     0.0024 C.ar    
   7 C7             3.6293    -0.6694    -0.0365 C.ar    
   8 C8             4.8031     0.0063    -0.0446 C.ar    
   9 C9             4.8359     1.4095    -0.0374 C.ar    
  10 C10            3.6406     2.1511    -0.0211 C.ar    
  11 C11            6.1026     2.1526    -0.0470 C.2     
  12 N12            6.0328     3.5041    -0.0399 N.am    
  13 C13            4.8302     4.1313    -0.0241 C.2     
  14 N14            3.6961     3.4935    -0.0158 N.2     
  15 O15            7.1745     1.5748    -0.0604 O.2     
  16 C16            3.6424    -2.1763    -0.0442 C.3     
  17 C17            3.5087    -2.6726    -1.4608 C.2     
  18 C18            7.2655     4.2957    -0.0490 C.3     
  19 C19            7.3196     5.1740     1.2048 C.3     
  20 C20            8.5708     6.0543     1.1481 C.3     
  21 O21            8.5445     6.8410    -0.0446 O.3     
  22 C22            8.5410     6.0734    -1.2500 C.3     
  23 C23            7.2886     5.1938    -1.2896 C.3     
  24 O24            7.3717     4.3444     2.3672 O.3     
  25 C25            4.5141    -2.9214    -2.3042 C.2     
  26 N26            4.1376    -3.3494    -3.4933 N.2     
  27 C27            2.8688    -3.4749    -3.6982 C.2     
  28 S28            1.9988    -3.0341    -2.2939 S.3     
  29 Cl29           2.1509    -4.0196    -5.1820 Cl      
  30 H30           -0.9630     1.9076     0.0169 H       
  31 H31           -0.9305    -0.5488     0.0083 H       
  32 H32            1.1786    -1.7697    -0.0183 H       
  33 H33            1.1188     3.1811     0.0081 H       
  34 H34            5.7317    -0.5451    -0.0563 H       
  35 H35            4.8132     5.2111    -0.0182 H       
  36 H36            4.5813    -2.5336     0.3789 H       
  37 H37            2.8098    -2.5499     0.5518 H       
  38 H38            8.1281     3.6295    -0.0650 H       
  39 H39            6.4318     5.8051     1.2460 H       
  40 H40            8.5922     6.7121     2.0170 H       
  41 H41            9.4596     5.4232     1.1477 H       
  42 H42            8.5409     6.7448    -2.1086 H       
  43 H43            9.4294     5.4425    -1.2817 H       
  44 H44            7.3062     4.5752    -2.1869 H       
  45 H45            6.4002     5.8253    -1.2987 H       
  46 H46            7.4077     4.8353     3.1995 H       
  47 H47            5.5507    -2.7834    -2.0342 H       
@<TRIPOS>BOND
   1    1    2 ar
   2    1    6 ar
   3    1   30 1
   4    2    3 ar
   5    2   31 1
   6    3    4 ar
   7    3   32 1
   8    4    5 ar
   9    4    7 ar
  10    5    6 ar
  11    5   10 ar
  12    6   33 1
  13    7    8 ar
  14    7   16 1
  15    8    9 ar
  16    8   34 1
  17    9   10 ar
  18    9   11 1
  19   10   14 1
  20   11   12 am
  21   11   15 2
  22   12   13 1
  23   12   18 1
  24   13   14 2
  25   13   35 1
  26   16   17 1
  27   16   36 1
  28   16   37 1
  29   17   25 2
  30   17   28 1
  31   18   19 1
  32   18   23 1
  33   18   38 1
  34   19   20 1
  35   19   24 1
  36   19   39 1
  37   20   21 1
  38   20   40 1
  39   20   41 1
  40   21   22 1
  41   22   23 1
  42   22   42 1
  43   22   43 1
  44   23   44 1
  45   23   45 1
  46   24   46 1
  47   25   26 1
  48   25   47 1
  49   26   27 2
  50   27   28 1
  51   27   29 1

#	End of record

