#	Name: ASD00170212
#	Creating user name:	WinNT
#	Creation time:	15. 06. 2019 18:31

#	Modifying user name:	WinNT
#	Modification time:	15. 06. 2019 18:31

#	Program:	/corina/corina34_cracker 3.40 0067  02.08.2006

@<TRIPOS>MOLECULE
ASD00170212
  48   50    0    0    0
SMALL
NO_CHARGES


@<TRIPOS>ATOM
   1 C1             0.0949     1.2738    -0.0666 C.2     
   2 C2            -0.0719    -0.0732     0.0463 C.2     
   3 C3            -1.4716    -0.4523     0.1191 C.2     
   4 C4            -2.3209     0.6239     0.0587 C.2     
   5 S5            -1.4597     2.0867    -0.0775 S.3     
   6 C6             1.0469    -1.0410     0.0891 C.ar    
   7 C7             1.3000    -1.7681     1.2526 C.ar    
   8 C8             2.3444    -2.6693     1.2859 C.ar    
   9 C9             3.1399    -2.8522     0.1690 C.ar    
  10 C10            2.8944    -2.1338    -0.9879 C.ar    
  11 C11            1.8495    -1.2344    -1.0361 C.ar    
  12 N12           -3.6961     0.5328     0.1069 N.pl3   
  13 C13           -1.9281    -1.8353     0.2432 C.2     
  14 O14           -2.1742    -2.5663    -0.8638 O.3     
  15 O15           -2.0862    -2.3272     1.3447 O.2     
  16 C16            1.4008     1.9548    -0.1602 C.ar    
  17 C17            1.6164     2.9203    -1.1421 C.ar    
  18 C18            2.8551     3.5590    -1.2229 C.ar    
  19 C19            3.8698     3.2257    -0.3188 C.ar    
  20 C20            3.6478     2.2679     0.6503 C.ar    
  21 C21            2.4231     1.6368     0.7396 C.ar    
  22 C22           -2.6177    -3.9106    -0.6681 C.3     
  23 C23           -2.8432    -4.5762    -2.0272 C.3     
  24 C24            3.0932     4.5797    -2.2563 C.2     
  25 C25            2.0453     4.8487    -3.3054 C.3     
  26 O26            4.1326     5.2041    -2.2636 O.2     
  27 C27            2.6193    -3.4556     2.5418 C.3     
  28 F28            1.8952    -4.6522     2.5107 F       
  29 F29            3.9866    -3.7400     2.6240 F       
  30 F30            2.2313    -2.7046     3.6565 F       
  31 H31            0.6801    -1.6257     2.1254 H       
  32 H32            3.9564    -3.5585     0.2002 H       
  33 H33            3.5192    -2.2808    -1.8564 H       
  34 H34            1.6586    -0.6745    -1.9397 H       
  35 H35           -4.1221    -0.3348     0.1888 H       
  36 H36           -4.2374     1.3363     0.0591 H       
  37 H37            0.8292     3.1728    -1.8371 H       
  38 H38            4.8288     3.7186    -0.3795 H       
  39 H39            4.4347     2.0144     1.3452 H       
  40 H40            2.2572     0.8886     1.5005 H       
  41 H41           -1.8615    -4.4655    -0.1128 H       
  42 H42           -3.5515    -3.9070    -0.1059 H       
  43 H43           -3.5994    -4.0213    -2.5825 H       
  44 H44           -1.9094    -4.5799    -2.5893 H       
  45 H45           -3.1815    -5.6016    -1.8779 H       
  46 H46            1.1530     4.2623    -3.0863 H       
  47 H47            1.7927     5.9091    -3.3032 H       
  48 H48            2.4321     4.5694    -4.2854 H       
@<TRIPOS>BOND
   1    1    2 2
   2    1   16 1
   3    1    5 1
   4    2    3 1
   5    2    6 1
   6    3    4 2
   7    3   13 1
   8    4    5 1
   9    4   12 1
  10    6    7 ar
  11    6   11 ar
  12    7    8 ar
  13    7   31 1
  14    8    9 ar
  15    8   27 1
  16    9   10 ar
  17    9   32 1
  18   10   11 ar
  19   10   33 1
  20   11   34 1
  21   12   35 1
  22   12   36 1
  23   13   14 1
  24   13   15 2
  25   14   22 1
  26   16   17 ar
  27   16   21 ar
  28   17   18 ar
  29   17   37 1
  30   18   19 ar
  31   18   24 1
  32   19   20 ar
  33   19   38 1
  34   20   21 ar
  35   20   39 1
  36   21   40 1
  37   22   23 1
  38   22   41 1
  39   22   42 1
  40   23   43 1
  41   23   44 1
  42   23   45 1
  43   24   25 1
  44   24   26 2
  45   25   46 1
  46   25   47 1
  47   25   48 1
  48   27   28 1
  49   27   29 1
  50   27   30 1

#	End of record

