#	Name: ASD02039373
#	Creating user name:	WinNT
#	Creation time:	15. 06. 2019 20:18

#	Modifying user name:	WinNT
#	Modification time:	15. 06. 2019 20:18

#	Program:	/corina/corina34_cracker 3.40 0067  02.08.2006

@<TRIPOS>MOLECULE
ASD02039373
  52   55    0    0    0
SMALL
NO_CHARGES


@<TRIPOS>ATOM
   1 C1            -0.1043     0.6721    -0.9064 C.ar    
   2 C2             0.2250    -0.6500    -1.1696 C.ar    
   3 C3            -0.7573    -1.5197    -1.6060 C.ar    
   4 C4            -2.3561     0.1437    -1.5240 C.ar    
   5 C5            -1.4162     1.0748    -1.0867 C.ar    
   6 C6            -3.7657     0.5591    -1.7221 C.ar    
   7 C7             0.9417     1.6462    -0.4289 C.3     
   8 N8             1.6684     2.1860    -1.5808 N.am    
   9 C9             1.1203     3.3223    -2.3256 C.3     
  10 C10            2.8410     1.6373    -1.9553 C.2     
  11 C11            3.3354     0.4244    -1.2809 C.2     
  12 C12            4.4369    -0.3005    -1.6306 C.2     
  13 N13            2.7813    -0.1722    -0.1945 N.2     
  14 C14            3.4907    -1.2175     0.1194 C.2     
  15 N15            4.5269    -1.3269    -0.7524 N.pl3   
  16 O16            3.4910     2.1434    -2.8500 O.2     
  17 C17            5.5565    -2.3690    -0.7440 C.3     
  18 C18           -4.7119    -0.3668    -2.1594 C.ar    
  19 N19           -1.9978    -1.1093    -1.7748 N.ar    
  20 C20           -4.1487     1.8750    -1.4659 C.ar    
  21 C21           -5.4601     2.2583    -1.6510 C.ar    
  22 C22           -6.3991     1.3351    -2.0917 C.ar    
  23 C23           -6.0218     0.0225    -2.3427 C.ar    
  24 C24            2.1008     4.4989    -2.4636 C.3     
  25 C25            1.5871     4.6557    -3.9046 C.3     
  26 C26            1.2188     3.1635    -3.8520 C.3     
  27 O27           -7.6906     1.7155    -2.2724 O.3     
  28 C28           -8.6039     0.7151    -2.7275 C.3     
  29 F29           -8.6467    -0.3330    -1.8018 F       
  30 F30           -9.8799     1.2737    -2.8588 F       
  31 F31           -8.1794     0.2254    -3.9673 F       
  32 H32            1.2391    -0.9963    -1.0351 H       
  33 H33           -0.5042    -2.5492    -1.8117 H       
  34 H34           -1.7091     2.0940    -0.8826 H       
  35 H35            0.4597     2.4612     0.1111 H       
  36 H36            1.6397     1.1341     0.2335 H       
  37 H37            0.1300     3.6176    -1.9790 H       
  38 H38            5.1084    -0.0952    -2.4512 H       
  39 H39            3.2898    -1.8878     0.9420 H       
  40 H40            5.2303    -3.2070    -1.3600 H       
  41 H41            6.4863    -1.9644    -1.1440 H       
  42 H42            5.7191    -2.7110     0.2781 H       
  43 H43           -4.4191    -1.3878    -2.3547 H       
  44 H44           -3.4189     2.5932    -1.1224 H       
  45 H45           -5.7573     3.2774    -1.4528 H       
  46 H46           -6.7543    -0.6931    -2.6857 H       
  47 H47            1.8607     5.3452    -1.8200 H       
  48 H48            3.1483     4.2038    -2.4032 H       
  49 H49            0.7239     5.3156    -3.9910 H       
  50 H50            2.3716     4.8867    -4.6251 H       
  51 H51            2.0252     2.5033    -4.1712 H       
  52 H52            0.2667     2.9317    -4.3292 H       
@<TRIPOS>BOND
   1    1    2 ar
   2    1    7 1
   3    1    5 ar
   4    2    3 ar
   5    2   32 1
   6    3   19 ar
   7    3   33 1
   8    4    5 ar
   9    4    6 1
  10    4   19 ar
  11    5   34 1
  12    6   18 ar
  13    6   20 ar
  14    7    8 1
  15    7   35 1
  16    7   36 1
  17    8    9 1
  18    8   10 am
  19    9   24 1
  20    9   26 1
  21    9   37 1
  22   10   11 1
  23   10   16 2
  24   11   12 2
  25   11   13 1
  26   12   15 1
  27   12   38 1
  28   13   14 2
  29   14   15 1
  30   14   39 1
  31   15   17 1
  32   17   40 1
  33   17   41 1
  34   17   42 1
  35   18   23 ar
  36   18   43 1
  37   20   21 ar
  38   20   44 1
  39   21   22 ar
  40   21   45 1
  41   22   23 ar
  42   22   27 1
  43   23   46 1
  44   24   25 1
  45   24   47 1
  46   24   48 1
  47   25   26 1
  48   25   49 1
  49   25   50 1
  50   26   51 1
  51   26   52 1
  52   27   28 1
  53   28   29 1
  54   28   30 1
  55   28   31 1

#	End of record

