#	Name: ASD00170267
#	Creating user name:	WinNT
#	Creation time:	15. 06. 2019 18:31

#	Modifying user name:	WinNT
#	Modification time:	15. 06. 2019 18:31

#	Program:	/corina/corina34_cracker 3.40 0067  02.08.2006

@<TRIPOS>MOLECULE
ASD00170267
  31   33    0    0    0
SMALL
NO_CHARGES


@<TRIPOS>ATOM
   1 C1            -0.7384     0.2845    -1.1232 C.2     
   2 C2            -0.0013    -0.0083    -0.0050 C.2     
   3 C3            -0.5604     0.5453     1.2251 C.ar    
   4 C4            -1.7367     1.2608     0.9973 C.ar    
   5 S5            -2.1395     1.2539    -0.7127 S.3     
   6 C6            -0.0911     0.4571     2.5526 C.ar    
   7 C7            -0.7923     1.0646     3.5515 C.ar    
   8 N8            -1.9036     1.7343     3.3001 N.ar    
   9 C9            -2.3869     1.8500     2.0820 C.ar    
  10 N10           -0.4184    -0.1225    -2.3958 N.pl3   
  11 C11            1.1885    -0.7752    -0.0395 C.2     
  12 C12            2.4996    -0.1013    -0.1678 C.ar    
  13 O13            1.1327    -1.9896     0.0365 O.2     
  14 C14            3.6790    -0.8432    -0.0931 C.ar    
  15 C15            4.8983    -0.2089    -0.2140 C.ar    
  16 C16            4.9532     1.1596    -0.4090 C.ar    
  17 C17            3.7872     1.9011    -0.4841 C.ar    
  18 C18            2.5617     1.2783    -0.3700 C.ar    
  19 C19            6.1731    -1.0085    -0.1330 C.3     
  20 F20            6.5345    -1.4411    -1.4134 F       
  21 F21            7.1927    -0.2085     0.3940 F       
  22 F22            5.9757    -2.1182     0.6957 F       
  23 H23            0.8149    -0.0869     2.7754 H       
  24 H24           -0.4330     0.9970     4.5677 H       
  25 H25           -3.2984     2.4062     1.9199 H       
  26 H26            0.4161    -0.5888    -2.5604 H       
  27 H27           -1.0269     0.0565    -3.1296 H       
  28 H28            3.6375    -1.9116     0.0595 H       
  29 H29            5.9101     1.6514    -0.5027 H       
  30 H30            3.8368     2.9692    -0.6361 H       
  31 H31            1.6524     1.8581    -0.4288 H       
@<TRIPOS>BOND
   1    1    2 2
   2    1   10 1
   3    1    5 1
   4    2    3 1
   5    2   11 1
   6    3    4 ar
   7    3    6 ar
   8    4    5 1
   9    4    9 ar
  10    6    7 ar
  11    6   23 1
  12    7    8 ar
  13    7   24 1
  14    8    9 ar
  15    9   25 1
  16   10   26 1
  17   10   27 1
  18   11   12 1
  19   11   13 2
  20   12   14 ar
  21   12   18 ar
  22   14   15 ar
  23   14   28 1
  24   15   16 ar
  25   15   19 1
  26   16   17 ar
  27   16   29 1
  28   17   18 ar
  29   17   30 1
  30   18   31 1
  31   19   20 1
  32   19   21 1
  33   19   22 1

#	End of record

