#	Name: ASD06020162
#	Creating user name:	WinNT
#	Creation time:	15. 06. 2019 21:04

#	Modifying user name:	WinNT
#	Modification time:	15. 06. 2019 21:04

#	Program:	/corina/corina34_cracker 3.40 0067  02.08.2006

@<TRIPOS>MOLECULE
ASD06020162
  38   41    0    0    0
SMALL
NO_CHARGES


@<TRIPOS>ATOM
   1 C1            -0.0167     1.3952     0.0026 C.ar    
   2 C2             0.0030    -0.0035     0.0028 C.ar    
   3 C3             1.2280    -0.6779    -0.0197 C.ar    
   4 C4             2.4446     0.1616    -0.0431 C.ar    
   5 C5             2.2943     1.5471    -0.0412 C.ar    
   6 N6             1.1014     2.1030    -0.0184 N.ar    
   7 S7            -1.2864    -1.2018     0.0272 S.3     
   8 C8            -0.0952    -2.4962     0.0056 C.2     
   9 N9             1.1018    -1.9989    -0.0168 N.2     
  10 C10            3.7732    -0.4470    -0.0670 C.2     
  11 O11            4.7625     0.2561    -0.0861 O.2     
  12 N12           -1.2350     2.0549     0.0190 N.pl3   
  13 C13           -0.1901     5.4434     0.4365 C.ar    
  14 N14           -0.1569     4.1305     0.3297 N.ar    
  15 C15           -1.2739     3.4373     0.1315 C.ar    
  16 C16           -2.4868     4.1226     0.0378 C.ar    
  17 C17           -2.4729     5.4987     0.1558 C.ar    
  18 N18           -1.3182     6.1192     0.3526 N.ar    
  19 C19           -3.7550     6.2851     0.0615 C.3     
  20 C20           -0.4125    -3.9389     0.0126 C.ar    
  21 C21            0.6163    -4.8842    -0.0062 C.ar    
  22 C22            0.3122    -6.2308     0.0009 C.ar    
  23 C23           -1.0076    -6.6461     0.0265 C.ar    
  24 C24           -2.0319    -5.7174     0.0448 C.ar    
  25 C25           -1.7434    -4.3653     0.0438 C.ar    
  26 F26           -2.7449    -3.4588     0.0673 F       
  27 Cl27           2.2730    -4.3665    -0.0389 Cl      
  28 H28            3.1722     2.1759    -0.0581 H       
  29 H29            3.8748    -1.5222    -0.0678 H       
  30 H30           -2.0607     1.5503    -0.0481 H       
  31 H31            0.7324     5.9802     0.6018 H       
  32 H32           -3.4125     3.5901    -0.1233 H       
  33 H33           -4.1915     6.3889     1.0549 H       
  34 H34           -3.5458     7.2732    -0.3484 H       
  35 H35           -4.4550     5.7622    -0.5901 H       
  36 H36            1.1066    -6.9623    -0.0139 H       
  37 H37           -1.2387    -7.7010     0.0320 H       
  38 H38           -3.0595    -6.0491     0.0644 H       
@<TRIPOS>BOND
   1    1    2 ar
   2    1    6 ar
   3    1   12 1
   4    2    3 ar
   5    2    7 1
   6    3    4 ar
   7    3    9 1
   8    4    5 ar
   9    4   10 1
  10    5    6 ar
  11    5   28 1
  12    7    8 1
  13    8    9 2
  14    8   20 1
  15   10   11 2
  16   10   29 1
  17   12   15 1
  18   12   30 1
  19   13   14 ar
  20   13   18 ar
  21   13   31 1
  22   14   15 ar
  23   15   16 ar
  24   16   17 ar
  25   16   32 1
  26   17   18 ar
  27   17   19 1
  28   19   33 1
  29   19   34 1
  30   19   35 1
  31   20   21 ar
  32   20   25 ar
  33   21   22 ar
  34   21   27 1
  35   22   23 ar
  36   22   36 1
  37   23   24 ar
  38   23   37 1
  39   24   25 ar
  40   24   38 1
  41   25   26 1

#	End of record

