#	Name: ASD03330239
#	Creating user name:	WinNT
#	Creation time:	15. 06. 2019 20:36

#	Modifying user name:	WinNT
#	Modification time:	15. 06. 2019 20:36

#	Program:	/corina/corina34_cracker 3.40 0067  02.08.2006

@<TRIPOS>MOLECULE
ASD03330239
  50   52    0    0    0
SMALL
NO_CHARGES


@<TRIPOS>ATOM
   1 C1            -0.0179     1.4655     0.0101 C.3     
   2 N2             0.0021    -0.0041     0.0020 N.3     
   3 C3             0.4494    -0.5231    -1.3031 C.3     
   4 C4             1.7237     0.1898    -1.6760 C.2     
   5 N5             2.1519     1.3316    -1.0766 N.pl3   
   6 C6             1.4184     2.0045    -0.0007 C.3     
   7 C7             2.6412    -0.1377    -2.6198 C.2     
   8 N8             3.6164     0.7992    -2.5865 N.2     
   9 C9             3.3274     1.6849    -1.6595 C.2     
  10 C10            4.1446     2.8676    -1.3094 C.ar    
  11 C11            5.1552     3.2999    -2.1686 C.ar    
  12 C12            2.5858    -1.3038    -3.5191 C.2     
  13 O13            1.6513    -2.0793    -3.4524 O.2     
  14 C14            3.5154    -2.6701    -5.3097 C.3     
  15 N15            3.5706    -1.5109    -4.4156 N.am    
  16 C16            5.9135     4.4038    -1.8366 C.ar    
  17 C17            5.6734     5.0815    -0.6547 C.ar    
  18 C18            4.6727     4.6578     0.2015 C.ar    
  19 C19            3.9040     3.5585    -0.1215 C.ar    
  20 C20            4.9322    -3.0399    -5.7533 C.3     
  21 C21            5.7780    -3.3827    -4.5253 C.3     
  22 C22            2.6696    -2.3273    -6.5377 C.3     
  23 C23            4.8746    -4.2505    -6.6870 C.3     
  24 C24            5.5609    -1.8561    -6.4912 C.3     
  25 H25           -0.5467     1.8255    -0.8724 H       
  26 H26           -0.5297     1.8160     0.9063 H       
  27 H27            0.5772    -0.3620     0.7498 H       
  28 H28            0.6347    -1.5947    -1.2296 H       
  29 H29           -0.3141    -0.3315    -2.0571 H       
  30 H30            1.4064     3.0795    -0.1803 H       
  31 H31            1.8965     1.7963     0.9564 H       
  32 H32            5.3438     2.7714    -3.0914 H       
  33 H33            3.0676    -3.5134    -4.7840 H       
  34 H34            4.3159    -0.8923    -4.4688 H       
  35 H35            6.6963     4.7393    -2.5007 H       
  36 H36            6.2699     5.9449    -0.3992 H       
  37 H37            4.4902     5.1911     1.1228 H       
  38 H38            3.1231     3.2287     0.5477 H       
  39 H39            5.3302    -4.2260    -3.9996 H       
  40 H40            6.7874    -3.6461    -4.8414 H       
  41 H41            5.8191    -2.5202    -3.8601 H       
  42 H42            3.1175    -1.4840    -7.0634 H       
  43 H43            2.6286    -3.1898    -7.2029 H       
  44 H44            1.6603    -2.0638    -6.2216 H       
  45 H45            4.2721    -4.0063    -7.5619 H       
  46 H46            5.8840    -4.5140    -7.0031 H       
  47 H47            4.4268    -5.0938    -6.1613 H       
  48 H48            5.6019    -0.9936    -5.8260 H       
  49 H49            6.5702    -2.1196    -6.8073 H       
  50 H50            4.9583    -1.6119    -7.3661 H       
@<TRIPOS>BOND
   1    1    2 1
   2    1    6 1
   3    1   25 1
   4    1   26 1
   5    2    3 1
   6    2   27 1
   7    3    4 1
   8    3   28 1
   9    3   29 1
  10    4    5 1
  11    4    7 2
  12    5    6 1
  13    5    9 1
  14    6   30 1
  15    6   31 1
  16    7    8 1
  17    7   12 1
  18    8    9 2
  19    9   10 1
  20   10   11 ar
  21   10   19 ar
  22   11   16 ar
  23   11   32 1
  24   12   13 2
  25   12   15 am
  26   14   15 1
  27   14   20 1
  28   14   22 1
  29   14   33 1
  30   15   34 1
  31   16   17 ar
  32   16   35 1
  33   17   18 ar
  34   17   36 1
  35   18   19 ar
  36   18   37 1
  37   19   38 1
  38   20   21 1
  39   20   23 1
  40   20   24 1
  41   21   39 1
  42   21   40 1
  43   21   41 1
  44   22   42 1
  45   22   43 1
  46   22   44 1
  47   23   45 1
  48   23   46 1
  49   23   47 1
  50   24   48 1
  51   24   49 1
  52   24   50 1

#	End of record

