#	Name: ASD03900013
#	Creating user name:	WinNT
#	Creation time:	15. 06. 2019 20:47

#	Modifying user name:	WinNT
#	Modification time:	15. 06. 2019 20:47

#	Program:	/corina/corina34_cracker 3.40 0067  02.08.2006

@<TRIPOS>MOLECULE
ASD03900013
  64   66    0    0    0
SMALL
NO_CHARGES


@<TRIPOS>ATOM
   1 C1            -0.0210     1.5186     0.0069 C.3     
   2 C2            -0.1606     0.0293     0.1899 C.ar    
   3 C3             1.4403     1.8850    -0.0334 C.ar    
   4 C4            -0.6778     1.9298    -1.2856 C.ar    
   5 C5            -0.6959     2.2414     1.1744 C.3     
   6 C6            -1.4173    -0.5452     0.2384 C.ar    
   7 C7            -1.5480    -1.9102     0.4060 C.ar    
   8 C8            -0.4170    -2.7047     0.5256 C.ar    
   9 C9             0.8428    -2.1258     0.4765 C.ar    
  10 C10            0.9683    -0.7610     0.3031 C.ar    
  11 C11            2.2267     1.4705    -1.0924 C.ar    
  12 C12            3.5665     1.8050    -1.1317 C.ar    
  13 C13            4.1227     2.5575    -0.1074 C.ar    
  14 C14            3.3314     2.9721     0.9540 C.ar    
  15 C15            1.9909     2.6398     0.9858 C.ar    
  16 C16           -0.8125     3.2706    -1.5953 C.ar    
  17 C17           -1.4146     3.6500    -2.7793 C.ar    
  18 C18           -1.8839     2.6845    -3.6581 C.ar    
  19 C19           -1.7471     1.3399    -3.3452 C.ar    
  20 C20           -1.1396     0.9655    -2.1623 C.ar    
  21 O21           -0.5429    -4.0477     0.6910 O.3     
  22 O22            5.4405     2.8874    -0.1435 O.3     
  23 C23            5.9450     3.6639     0.9449 C.3     
  24 O24           -2.4771     3.0553    -4.8235 O.3     
  25 C25            0.6646    -4.8031     0.8071 C.3     
  26 C26           -1.6720     3.4913    -5.8055 C.2     
  27 O27           -0.4725     3.4525    -5.6653 O.2     
  28 C28           -2.2643     4.0289    -7.0827 C.3     
  29 C29            0.3295    -6.2618     0.9832 C.2     
  30 O30            1.3135    -7.1654     1.1137 O.3     
  31 O31           -0.8248    -6.6179     1.0068 O.2     
  32 C32            0.9171    -8.5523     1.2797 C.3     
  33 C33            7.4130     3.9307     0.7337 C.2     
  34 O34            8.1017     4.6467     1.6363 O.3     
  35 O35            7.9702     3.5001    -0.2482 O.2     
  36 C36            9.5120     4.8644     1.3680 C.3     
  37 H37           -0.2209     1.9440     2.1093 H       
  38 H38           -0.5949     3.3186     1.0421 H       
  39 H39           -1.7528     1.9764     1.2036 H       
  40 H40           -2.2975     0.0737     0.1457 H       
  41 H41           -2.5298    -2.3585     0.4443 H       
  42 H42            1.7248    -2.7421     0.5694 H       
  43 H43            1.9488    -0.3098     0.2649 H       
  44 H44            1.7933     0.8844    -1.8893 H       
  45 H45            4.1805     1.4807    -1.9589 H       
  46 H46            3.7621     3.5580     1.7526 H       
  47 H47            1.3745     2.9623     1.8119 H       
  48 H48           -0.4470     4.0218    -0.9109 H       
  49 H49           -1.5202     4.6974    -3.0205 H       
  50 H50           -2.1120     0.5864    -4.0275 H       
  51 H51           -1.0326    -0.0812    -1.9184 H       
  52 H52            5.4073     4.6107     0.9957 H       
  53 H53            5.8056     3.1165     1.8771 H       
  54 H54            1.2621    -4.6739    -0.0953 H       
  55 H55            1.2303    -4.4534     1.6707 H       
  56 H56           -3.3519     3.9849    -7.0255 H       
  57 H57           -1.9493     5.0630    -7.2222 H       
  58 H58           -1.9201     3.4276    -7.9242 H       
  59 H59            0.3077    -8.6510     2.1781 H       
  60 H60            0.3396    -8.8715     0.4121 H       
  61 H61            1.8063    -9.1756     1.3736 H       
  62 H62           10.0225     3.9033     1.3053 H       
  63 H63            9.6242     5.3976     0.4239 H       
  64 H64            9.9481     5.4556     2.1732 H       
@<TRIPOS>BOND
   1    1    2 1
   2    1    3 1
   3    1    4 1
   4    1    5 1
   5    2    6 ar
   6    2   10 ar
   7    3   11 ar
   8    3   15 ar
   9    4   16 ar
  10    4   20 ar
  11    5   37 1
  12    5   38 1
  13    5   39 1
  14    6    7 ar
  15    6   40 1
  16    7    8 ar
  17    7   41 1
  18    8    9 ar
  19    8   21 1
  20    9   10 ar
  21    9   42 1
  22   10   43 1
  23   11   12 ar
  24   11   44 1
  25   12   13 ar
  26   12   45 1
  27   13   14 ar
  28   13   22 1
  29   14   15 ar
  30   14   46 1
  31   15   47 1
  32   16   17 ar
  33   16   48 1
  34   17   18 ar
  35   17   49 1
  36   18   19 ar
  37   18   24 1
  38   19   20 ar
  39   19   50 1
  40   20   51 1
  41   21   25 1
  42   22   23 1
  43   23   33 1
  44   23   52 1
  45   23   53 1
  46   24   26 1
  47   25   29 1
  48   25   54 1
  49   25   55 1
  50   26   27 2
  51   26   28 1
  52   28   56 1
  53   28   57 1
  54   28   58 1
  55   29   30 1
  56   29   31 2
  57   30   32 1
  58   32   59 1
  59   32   60 1
  60   32   61 1
  61   33   34 1
  62   33   35 2
  63   34   36 1
  64   36   62 1
  65   36   63 1
  66   36   64 1

#	End of record

