#	Name: ASD01915896
#	Creating user name:	WinNT
#	Creation time:	15. 06. 2019 20:06

#	Modifying user name:	WinNT
#	Modification time:	15. 06. 2019 20:06

#	Program:	/corina/corina34_cracker 3.40 0067  02.08.2006

@<TRIPOS>MOLECULE
ASD01915896
  34   37    0    0    0
SMALL
NO_CHARGES


@<TRIPOS>ATOM
   1 C1            -0.0167     1.3810     0.0096 C.2     
   2 C2             0.0021    -0.0041     0.0020 C.2     
   3 C3            -1.3086    -0.7726     0.0125 C.3     
   4 C4            -2.3559     0.0530     0.7565 C.3     
   5 N5            -2.3980     1.4417     0.3182 N.am    
   6 C6            -1.2746     2.1386     0.0202 C.2     
   7 O7            -1.3062     3.3314    -0.2182 O.2     
   8 S8             1.6338     1.9607    -0.0030 S.3     
   9 C9             2.2081     0.3491    -0.0182 C.2     
  10 N10            1.2122    -0.4915    -0.0131 N.2     
  11 C11           -3.6977     2.1056     0.1902 C.3     
  12 C12            3.6374    -0.0368    -0.0348 C.2     
  13 N13            4.1114    -1.2574    -0.0476 N.2     
  14 O14            5.3239    -1.2380    -0.0601 O.3     
  15 C15            5.7615     0.0308    -0.0565 C.2     
  16 N16            4.6934     0.8050    -0.0455 N.2     
  17 C17            7.1714     0.4758    -0.0678 C.ar    
  18 C18            8.2023    -0.4640    -0.0846 C.ar    
  19 C19            7.4762     1.8380    -0.0675 C.ar    
  20 C20            8.7932     2.2481    -0.0786 C.ar    
  21 C21            9.8126     1.3129    -0.0900 C.ar    
  22 C22            9.5181    -0.0409    -0.0956 C.ar    
  23 F23           10.5185    -0.9488    -0.1067 F       
  24 H24           -1.6393    -0.9452    -1.0117 H       
  25 H25           -1.1683    -1.7274     0.5193 H       
  26 H26           -3.3361    -0.3960     0.5960 H       
  27 H27           -2.1307     0.0278     1.8227 H       
  28 H28           -3.9577     2.5807     1.1362 H       
  29 H29           -3.6441     2.8614    -0.5933 H       
  30 H30           -4.4584     1.3686    -0.0673 H       
  31 H31            7.9729    -1.5193    -0.0886 H       
  32 H32            6.6820     2.5699    -0.0591 H       
  33 H33            9.0292     3.3020    -0.0788 H       
  34 H34           10.8420     1.6394    -0.0990 H       
@<TRIPOS>BOND
   1    1    2 2
   2    1    8 1
   3    1    6 1
   4    2    3 1
   5    2   10 1
   6    3    4 1
   7    3   24 1
   8    3   25 1
   9    4    5 1
  10    4   26 1
  11    4   27 1
  12    5    6 am
  13    5   11 1
  14    6    7 2
  15    8    9 1
  16    9   10 2
  17    9   12 1
  18   11   28 1
  19   11   29 1
  20   11   30 1
  21   12   13 2
  22   12   16 1
  23   13   14 1
  24   14   15 1
  25   15   16 2
  26   15   17 1
  27   17   18 ar
  28   17   19 ar
  29   18   22 ar
  30   18   31 1
  31   19   20 ar
  32   19   32 1
  33   20   21 ar
  34   20   33 1
  35   21   22 ar
  36   21   34 1
  37   22   23 1

#	End of record

