#	Name: ASD08390037
#	Creating user name:	WinNT
#	Creation time:	15. 06. 2019 21:19

#	Modifying user name:	WinNT
#	Modification time:	15. 06. 2019 21:19

#	Program:	/corina/corina34_cracker 3.40 0067  02.08.2006

@<TRIPOS>MOLECULE
ASD08390037
  61   66    0    0    0
SMALL
NO_CHARGES


@<TRIPOS>ATOM
   1 C1            -0.1068     1.7049     0.1152 C.3     
   2 C2             0.2016     0.2063    -0.0736 C.3     
   3 N3             1.2293     2.3228     0.1530 N.pl3   
   4 C4             2.1663     1.3326     0.0082 C.2     
   5 N5             1.6690     0.1472    -0.1208 N.2     
   6 C6             1.5093     3.7515     0.3165 C.3     
   7 C7             1.6911     4.0635     1.7796 C.ar    
   8 C8             2.9344     3.9225     2.3671 C.ar    
   9 C9             3.1011     4.2087     3.7092 C.ar    
  10 C10            2.0246     4.6363     4.4636 C.ar    
  11 C11            0.7815     4.7783     3.8759 C.ar    
  12 C12            0.6157     4.4963     2.5328 C.ar    
  13 C13            3.6230     1.5988     0.0008 C.ar    
  14 C14            4.4907     0.7642     0.7047 C.ar    
  15 C15            5.8472     1.0174     0.6941 C.ar    
  16 C16            6.3467     2.0967    -0.0125 C.ar    
  17 C17            5.4909     2.9284    -0.7122 C.ar    
  18 C18            4.1332     2.6816    -0.7147 C.ar    
  19 C19           -0.9046     2.2343    -1.0485 C.ar    
  20 C20           -2.2634     2.4500    -0.9139 C.ar    
  21 C21           -2.9953     2.9355    -1.9813 C.ar    
  22 C22           -2.3683     3.2057    -3.1834 C.ar    
  23 C23           -1.0094     2.9908    -3.3178 C.ar    
  24 C24           -0.2767     2.5094    -2.2489 C.ar    
  25 C25           -0.3218    -0.5915     1.0929 C.2     
  26 C26            0.4096    -1.2962     1.9707 C.2     
  27 N27           -0.4107    -1.8886     2.8918 N.pl3   
  28 C28           -1.7232    -1.5715     2.6223 C.ar    
  29 C29           -1.7246    -0.7401     1.4876 C.ar    
  30 C30           -2.9317    -1.8991     3.2288 C.ar    
  31 C31           -4.1114    -1.4129     2.7099 C.ar    
  32 C32           -4.1080    -0.5978     1.5860 C.ar    
  33 C33           -2.9322    -0.2575     0.9790 C.ar    
  34 C34           -0.3919    -0.2965    -1.3643 C.2     
  35 O35           -1.4885    -0.8037    -1.3678 O.2     
  36 O36            0.2977    -0.1808    -2.5101 O.3     
  37 H37           -0.6351     1.8736     1.0535 H       
  38 H38            2.4196     4.0077    -0.2255 H       
  39 H39            0.6758     4.3326    -0.0781 H       
  40 H40            3.7754     3.5883     1.7777 H       
  41 H41            4.0723     4.0978     4.1684 H       
  42 H42            2.1547     4.8592     5.5123 H       
  43 H43           -0.0596     5.1121     4.4654 H       
  44 H44           -0.3555     4.6072     2.0736 H       
  45 H45            4.1019    -0.0783     1.2573 H       
  46 H46            6.5202     0.3718     1.2388 H       
  47 H47            7.4090     2.2910    -0.0175 H       
  48 H48            5.8867     3.7697    -1.2617 H       
  49 H49            3.4661     3.3314    -1.2616 H       
  50 H50           -2.7532     2.2390     0.0252 H       
  51 H51           -4.0569     3.1035    -1.8763 H       
  52 H52           -2.9402     3.5843    -4.0176 H       
  53 H53           -0.5196     3.2015    -4.2570 H       
  54 H54            0.7850     2.3414    -2.3539 H       
  55 H55            1.4859    -1.3831     1.9523 H       
  56 H56           -0.1121    -2.4487     3.6253 H       
  57 H57           -2.9448    -2.5327     4.1032 H       
  58 H58           -5.0486    -1.6686     3.1819 H       
  59 H59           -5.0419    -0.2253     1.1916 H       
  60 H60           -2.9372     0.3770     0.1051 H       
  61 H61           -0.1241    -0.5178    -3.3123 H       
@<TRIPOS>BOND
   1    1    2 1
   2    1    3 1
   3    1   19 1
   4    1   37 1
   5    2   25 1
   6    2   34 1
   7    2    5 1
   8    3    4 1
   9    3    6 1
  10    4    5 2
  11    4   13 1
  12    6    7 1
  13    6   38 1
  14    6   39 1
  15    7    8 ar
  16    7   12 ar
  17    8    9 ar
  18    8   40 1
  19    9   10 ar
  20    9   41 1
  21   10   11 ar
  22   10   42 1
  23   11   12 ar
  24   11   43 1
  25   12   44 1
  26   13   14 ar
  27   13   18 ar
  28   14   15 ar
  29   14   45 1
  30   15   16 ar
  31   15   46 1
  32   16   17 ar
  33   16   47 1
  34   17   18 ar
  35   17   48 1
  36   18   49 1
  37   19   20 ar
  38   19   24 ar
  39   20   21 ar
  40   20   50 1
  41   21   22 ar
  42   21   51 1
  43   22   23 ar
  44   22   52 1
  45   23   24 ar
  46   23   53 1
  47   24   54 1
  48   25   26 2
  49   25   29 1
  50   26   27 1
  51   26   55 1
  52   27   28 1
  53   27   56 1
  54   28   29 ar
  55   28   30 ar
  56   29   33 ar
  57   30   31 ar
  58   30   57 1
  59   31   32 ar
  60   31   58 1
  61   32   33 ar
  62   32   59 1
  63   33   60 1
  64   34   35 2
  65   34   36 1
  66   36   61 1

#	End of record

