#	Name: ASD01411607
#	Creating user name:	WinNT
#	Creation time:	15. 06. 2019 19:19

#	Modifying user name:	WinNT
#	Modification time:	15. 06. 2019 19:19

#	Program:	/corina/corina34_cracker 3.40 0067  02.08.2006

@<TRIPOS>MOLECULE
ASD01411607
  56   57    0    0    0
SMALL
NO_CHARGES


@<TRIPOS>ATOM
   1 C1             1.1804    -0.7336     0.7264 C.2     
   2 N2             0.1279    -0.1281     0.1464 N.am    
   3 C3            -3.4256    -0.4727     0.9025 C.3     
   4 C4            -1.9613    -0.6048     1.3777 C.3     
   5 C5            -1.1615    -0.8197     0.0736 C.3     
   6 O6            -1.9842    -0.2418    -0.9633 O.3     
   7 C7            -3.3372    -0.6233    -0.6324 C.3     
   8 C8            -4.3367     0.3108    -1.3176 C.3     
   9 F9            -1.8192    -1.7073     2.2271 F       
  10 C10           -1.5089     0.6754     2.0828 C.3     
  11 N11            2.3638    -0.1278     0.8066 N.2     
  12 C12            2.5349     1.0923     0.3147 C.2     
  13 C13            1.4519     1.7543    -0.2994 C.2     
  14 C14            0.2551     1.1252    -0.3732 C.2     
  15 N15            3.7616     1.7084     0.4036 N.pl3   
  16 O16            1.0471    -1.8537     1.1908 O.2     
  17 O17           -3.9595     0.8305     1.2560 O.3     
  18 C18           -5.2786     0.9048     1.4929 C.2     
  19 O19           -5.9645    -0.0863     1.4078 O.2     
  20 C20           -5.9042     2.2244     1.8651 C.3     
  21 C21           -7.4071     2.0339     2.0794 C.3     
  22 C22           -5.2671     2.7451     3.1550 C.3     
  23 O23           -4.1855     0.2086    -2.7581 O.3     
  24 C24           -4.9947     0.9699    -3.5113 C.2     
  25 O25           -5.8026     1.6976    -2.9844 O.2     
  26 C26           -4.8955     0.9171    -5.0141 C.3     
  27 C27           -5.1767    -0.5082    -5.4940 C.3     
  28 C28           -5.9209     1.8731    -5.6268 C.3     
  29 N29           -3.5854    -2.0131    -1.0236 N.2     
  30 N30           -3.5076    -2.3154    -2.1033 N.1     
  31 N31           -3.4299    -2.6178    -3.1831 N.pl3   
  32 H32           -4.0393    -1.2649     1.3314 H       
  33 H33           -1.0108    -1.8838    -0.1082 H       
  34 H34           -5.3509     0.0260    -1.0377 H       
  35 H35           -4.1480     1.3376    -1.0044 H       
  36 H36           -2.1422     0.8549     2.9516 H       
  37 H37           -0.4732     0.5664     2.4045 H       
  38 H38           -1.5890     1.5169     1.3947 H       
  39 H39            1.5750     2.7480    -0.7044 H       
  40 H40           -0.5894     1.6115    -0.8388 H       
  41 H41            4.5047     1.2506     0.8270 H       
  42 H42            3.8836     2.6005     0.0430 H       
  43 H43           -5.7399     2.9435     1.0627 H       
  44 H44           -7.5714     1.3147     2.8818 H       
  45 H45           -7.8596     2.9883     2.3486 H       
  46 H46           -7.8610     1.6629     1.1604 H       
  47 H47           -5.4314     2.0259     3.9574 H       
  48 H48           -4.1964     2.8808     3.0023 H       
  49 H49           -5.7196     3.6995     3.4242 H       
  50 H50           -3.8929     1.2132    -5.3227 H       
  51 H51           -4.4461    -1.1893    -5.0575 H       
  52 H52           -6.1792    -0.8044    -5.1854 H       
  53 H53           -5.1049    -0.5465    -6.5809 H       
  54 H54           -5.7206     2.8885    -5.2850 H       
  55 H55           -5.8492     1.8349    -6.7138 H       
  56 H56           -6.9235     1.5770    -5.3183 H       
@<TRIPOS>BOND
   1    1    2 am
   2    1   11 1
   3    1   16 2
   4    2    5 1
   5    2   14 1
   6    3    4 1
   7    3   17 1
   8    3    7 1
   9    3   32 1
  10    4    9 1
  11    4   10 1
  12    4    5 1
  13    5    6 1
  14    5   33 1
  15    6    7 1
  16    7    8 1
  17    7   29 1
  18    8   23 1
  19    8   34 1
  20    8   35 1
  21   10   36 1
  22   10   37 1
  23   10   38 1
  24   11   12 2
  25   12   13 1
  26   12   15 1
  27   13   14 2
  28   13   39 1
  29   14   40 1
  30   15   41 1
  31   15   42 1
  32   17   18 1
  33   18   19 2
  34   18   20 1
  35   20   21 1
  36   20   22 1
  37   20   43 1
  38   21   44 1
  39   21   45 1
  40   21   46 1
  41   22   47 1
  42   22   48 1
  43   22   49 1
  44   23   24 1
  45   24   25 2
  46   24   26 1
  47   26   27 1
  48   26   28 1
  49   26   50 1
  50   27   51 1
  51   27   52 1
  52   27   53 1
  53   28   54 1
  54   28   55 1
  55   28   56 1
  56   29   30 2
  57   30   31 2

#	End of record

