#	Name: ASD02198168
#	Creating user name:	WinNT
#	Creation time:	15. 06. 2019 20:18

#	Modifying user name:	WinNT
#	Modification time:	15. 06. 2019 20:18

#	Program:	/corina/corina34_cracker 3.40 0067  02.08.2006

@<TRIPOS>MOLECULE
ASD02198168
  40   42    0    0    0
SMALL
NO_CHARGES


@<TRIPOS>ATOM
   1 C1            -0.1529     1.3957    -0.4894 C.2     
   2 C2            -0.0194     0.0239    -0.4415 C.2     
   3 C3            -1.1225    -0.8603    -0.2133 C.1     
   4 S4             1.3520     2.1433    -0.7778 S.3     
   5 C5             2.1831     0.5973    -0.8370 C.2     
   6 C6             1.2854    -0.4242    -0.6355 C.2     
   7 C7             3.5636     0.4290    -1.0579 C.2     
   8 C8             4.4078     1.5981    -1.3868 C.ar    
   9 O9             4.0631    -0.6806    -0.9781 O.2     
  10 N10            1.6422    -1.7637    -0.6257 N.pl3   
  11 N11           -1.3414     2.0699    -0.3316 N.pl3   
  12 N12           -1.9976    -1.5616    -0.0323 N.1     
  13 C13            5.2438     2.1537    -0.4172 C.ar    
  14 C14           -1.3502     3.4681    -0.2714 C.ar    
  15 C15           -2.4026     4.1810    -0.8310 C.ar    
  16 C16            6.0287     3.2437    -0.7295 C.ar    
  17 C17            5.9888     3.7882    -2.0025 C.ar    
  18 C18            5.1618     3.2423    -2.9697 C.ar    
  19 C19            4.3759     2.1472    -2.6713 C.ar    
  20 C20           -2.4106     5.5605    -0.7708 C.ar    
  21 C21           -1.3680     6.2343    -0.1516 C.ar    
  22 C22           -0.3162     5.5230     0.4072 C.ar    
  23 C23           -0.3094     4.1432     0.3529 C.ar    
  24 O24           -1.3768     7.5928    -0.0928 O.3     
  25 C25           -0.2714     8.2210     0.5596 C.3     
  26 Cl26           3.3399     1.4631    -3.8846 Cl      
  27 Cl27           6.9793     5.1611    -2.3869 Cl      
  28 H28            2.5671    -2.0202    -0.7658 H       
  29 H29            0.9670    -2.4444    -0.4786 H       
  30 H30           -2.1735     1.5762    -0.2619 H       
  31 H31            5.2758     1.7310     0.5762 H       
  32 H32           -3.2142     3.6567    -1.3134 H       
  33 H33            6.6758     3.6742     0.0204 H       
  34 H34            5.1349     3.6711    -3.9606 H       
  35 H35           -3.2287     6.1151    -1.2062 H       
  36 H36            0.4954     6.0484     0.8884 H       
  37 H37            0.5094     3.5896     0.7883 H       
  38 H38           -0.2207     7.8834     1.5947 H       
  39 H39            0.6524     7.9561     0.0453 H       
  40 H40           -0.4028     9.3028     0.5363 H       
@<TRIPOS>BOND
   1    1    2 2
   2    1    4 1
   3    1   11 1
   4    2    3 1
   5    2    6 1
   6    3   12 3
   7    4    5 1
   8    5    6 2
   9    5    7 1
  10    6   10 1
  11    7    8 1
  12    7    9 2
  13    8   13 ar
  14    8   19 ar
  15   10   28 1
  16   10   29 1
  17   11   14 1
  18   11   30 1
  19   13   16 ar
  20   13   31 1
  21   14   15 ar
  22   14   23 ar
  23   15   20 ar
  24   15   32 1
  25   16   17 ar
  26   16   33 1
  27   17   18 ar
  28   17   27 1
  29   18   19 ar
  30   18   34 1
  31   19   26 1
  32   20   21 ar
  33   20   35 1
  34   21   22 ar
  35   21   24 1
  36   22   23 ar
  37   22   36 1
  38   23   37 1
  39   24   25 1
  40   25   38 1
  41   25   39 1
  42   25   40 1

#	End of record

