#	Name: ASD01812118
#	Creating user name:	WinNT
#	Creation time:	15. 06. 2019 19:28

#	Modifying user name:	WinNT
#	Modification time:	15. 06. 2019 19:28

#	Program:	/corina/corina34_cracker 3.40 0067  02.08.2006

@<TRIPOS>MOLECULE
ASD01812118
  42   44    0    0    0
SMALL
NO_CHARGES


@<TRIPOS>ATOM
   1 C1             0.4814     0.5010     0.7587 C.ar    
   2 C2             0.6956    -0.8531     0.5626 C.ar    
   3 C3             1.9462    -1.3094     0.2150 C.ar    
   4 C4             3.0134    -0.4127     0.0563 C.ar    
   5 C5             2.7956     0.9495     0.2555 C.ar    
   6 C6             1.5193     1.3941     0.6068 C.ar    
   7 C7             4.3224    -0.9698    -0.3194 C.2     
   8 N8             5.1335    -0.4372    -1.1641 N.2     
   9 C9             4.8225     0.8181    -1.8469 C.3     
  10 C10            4.7222     1.9169    -0.8243 C.2     
  11 N11            3.7890     1.9060     0.1253 N.am    
  12 C12            4.7367    -2.2381     0.3220 C.ar    
  13 C13            4.8897    -3.3935    -0.4443 C.ar    
  14 C14            5.2765    -4.5723     0.1590 C.ar    
  15 C15            5.5125    -4.6120     1.5219 C.ar    
  16 C16            5.3629    -3.4717     2.2895 C.ar    
  17 C17            4.9818    -2.2819     1.6971 C.ar    
  18 F18            4.8356    -1.1679     2.4472 F       
  19 C19            3.4898     0.6827    -2.5860 C.3     
  20 C20            3.2195     1.9575    -3.3878 C.3     
  21 C21            3.5533    -0.5141    -3.5371 C.3     
  22 S22            5.7631     3.1294    -0.8797 S.2     
  23 C23           -0.4417    -1.8274     0.7307 C.3     
  24 F24           -1.6033    -1.1320     1.0831 F       
  25 F25           -0.6533    -2.5093    -0.4724 F       
  26 F26           -0.1243    -2.7455     1.7375 F       
  27 H27           -0.5020     0.8579     1.0267 H       
  28 H28            2.1076    -2.3665     0.0633 H       
  29 H29            1.3441     2.4486     0.7612 H       
  30 H30            5.6143     1.0526    -2.5583 H       
  31 H31            3.8061     2.6242     0.7771 H       
  32 H32            4.7054    -3.3653    -1.5080 H       
  33 H33            5.3950    -5.4670    -0.4342 H       
  34 H34            5.8147    -5.5380     1.9884 H       
  35 H35            5.5480    -3.5094     3.3529 H       
  36 H36            2.6876     0.5308    -1.8639 H       
  37 H37            4.0217     2.1095    -4.1099 H       
  38 H38            2.2700     1.8611    -3.9144 H       
  39 H39            3.1742     2.8101    -2.7102 H       
  40 H40            3.6508    -1.4329    -2.9589 H       
  41 H41            2.6408    -0.5542    -4.1320 H       
  42 H42            4.4135    -0.4077    -4.1980 H       
@<TRIPOS>BOND
   1    1    2 ar
   2    1    6 ar
   3    1   27 1
   4    2    3 ar
   5    2   23 1
   6    3    4 ar
   7    3   28 1
   8    4    5 ar
   9    4    7 1
  10    5    6 ar
  11    5   11 1
  12    6   29 1
  13    7    8 2
  14    7   12 1
  15    8    9 1
  16    9   10 1
  17    9   19 1
  18    9   30 1
  19   10   11 am
  20   10   22 2
  21   11   31 1
  22   12   13 ar
  23   12   17 ar
  24   13   14 ar
  25   13   32 1
  26   14   15 ar
  27   14   33 1
  28   15   16 ar
  29   15   34 1
  30   16   17 ar
  31   16   35 1
  32   17   18 1
  33   19   20 1
  34   19   21 1
  35   19   36 1
  36   20   37 1
  37   20   38 1
  38   20   39 1
  39   21   40 1
  40   21   41 1
  41   21   42 1
  42   23   24 1
  43   23   25 1
  44   23   26 1

#	End of record

