#	Name: ASD03740033
#	Creating user name:	WinNT
#	Creation time:	15. 06. 2019 20:46

#	Modifying user name:	WinNT
#	Modification time:	15. 06. 2019 20:46

#	Program:	/corina/corina34_cracker 3.40 0067  02.08.2006

@<TRIPOS>MOLECULE
ASD03740033
  38   40    0    0    0
SMALL
NO_CHARGES


@<TRIPOS>ATOM
   1 C1            -0.0010     1.4105     0.0487 C.ar    
   2 C2             0.0322     0.0286     0.0589 C.ar    
   3 C3             1.2456    -0.6337     0.0586 C.ar    
   4 C4             2.4258     0.0860     0.0476 C.ar    
   5 C5             2.3926     1.4679     0.0365 C.ar    
   6 C6             1.1792     2.1302     0.0382 C.ar    
   7 C7             1.1430     3.6367     0.0256 C.3     
   8 N8             1.2444     4.1160    -1.3550 N.pl3   
   9 C9             0.2190     4.2615    -2.2236 C.2     
  10 C10            0.7332     4.7286    -3.3923 C.2     
  11 C11            2.1140     4.8706    -3.2263 C.2     
  12 N12            2.4201     4.5103    -2.0063 N.2     
  13 O13           -1.0876     3.9899    -1.9744 O.3     
  14 C14           -1.9748     4.3197    -2.9335 C.2     
  15 C15           -3.4195     4.1653    -2.6857 C.ar    
  16 O16           -1.5838     4.7444    -4.0029 O.2     
  17 C17           -4.0629     2.9624    -2.9987 C.ar    
  18 C18           -5.4179     2.8265    -2.7629 C.ar    
  19 C19           -6.1381     3.8751    -2.2198 C.ar    
  20 C20           -5.5107     5.0676    -1.9078 C.ar    
  21 C21           -4.1551     5.2189    -2.1305 C.ar    
  22 C22            3.0828     5.3608    -4.2713 C.3     
  23 F23           -3.5441     6.3844    -1.8246 F       
  24 F24           -3.3616     1.9372    -3.5302 F       
  25 H25           -0.9490     1.9278     0.0444 H       
  26 H26           -0.8898    -0.5337     0.0675 H       
  27 H27            1.2716    -1.7133     0.0673 H       
  28 H28            3.3738    -0.4314     0.0481 H       
  29 H29            3.3147     2.0302     0.0283 H       
  30 H30            0.2055     3.9812     0.4619 H       
  31 H31            1.9790     4.0251     0.6074 H       
  32 H32            0.1744     4.9501    -4.2896 H       
  33 H33           -5.9160     1.8990    -3.0039 H       
  34 H34           -7.1967     3.7621    -2.0385 H       
  35 H35           -6.0808     5.8812    -1.4843 H       
  36 H36            3.1782     6.4442    -4.1987 H       
  37 H37            4.0566     4.8988    -4.1092 H       
  38 H38            2.7145     5.0941    -5.2619 H       
@<TRIPOS>BOND
   1    1    2 ar
   2    1    6 ar
   3    1   25 1
   4    2    3 ar
   5    2   26 1
   6    3    4 ar
   7    3   27 1
   8    4    5 ar
   9    4   28 1
  10    5    6 ar
  11    5   29 1
  12    6    7 1
  13    7    8 1
  14    7   30 1
  15    7   31 1
  16    8    9 1
  17    8   12 1
  18    9   10 2
  19    9   13 1
  20   10   11 1
  21   10   32 1
  22   11   12 2
  23   11   22 1
  24   13   14 1
  25   14   15 1
  26   14   16 2
  27   15   17 ar
  28   15   21 ar
  29   17   18 ar
  30   17   24 1
  31   18   19 ar
  32   18   33 1
  33   19   20 ar
  34   19   34 1
  35   20   21 ar
  36   20   35 1
  37   21   23 1
  38   22   36 1
  39   22   37 1
  40   22   38 1

#	End of record

