#	Name: ASD02498001
#	Creating user name:	WinNT
#	Creation time:	15. 06. 2019 20:22

#	Modifying user name:	WinNT
#	Modification time:	15. 06. 2019 20:22

#	Program:	/corina/corina34_cracker 3.40 0067  02.08.2006

@<TRIPOS>MOLECULE
ASD02498001
  50   51    0    0    0
SMALL
NO_CHARGES


@<TRIPOS>ATOM
   1 C1            -0.0184     1.5028     0.0103 C.2     
   2 C2             0.0021    -0.0041     0.0020 C.3     
   3 O3             1.0236     2.1234     0.0037 O.2     
   4 N4            -1.1946     2.1607     0.0195 N.am    
   5 C5             1.4295    -0.4870    -0.0142 C.ar    
   6 C6             2.0947    -0.7146     1.1766 C.ar    
   7 C7             3.4039    -1.1576     1.1642 C.ar    
   8 C8             4.0504    -1.3742    -0.0454 C.ar    
   9 C9             3.3802    -1.1454    -1.2376 C.ar    
  10 C10            2.0697    -0.7071    -1.2194 C.ar    
  11 O11            5.3380    -1.8094    -0.0608 O.3     
  12 C12            5.9395    -2.0107    -1.3414 C.3     
  13 C13            7.3568    -2.4900    -1.1609 C.ar    
  14 C14            7.6235    -3.8439    -1.0799 C.ar    
  15 C15            8.9236    -4.2836    -0.9143 C.ar    
  16 C16            9.9569    -3.3693    -0.8302 C.ar    
  17 C17            9.6903    -2.0154    -0.9121 C.ar    
  18 C18            8.3907    -1.5759    -1.0821 C.ar    
  19 C19           11.3741    -3.8485    -0.6487 C.3     
  20 C20           12.2276    -3.3748    -1.8269 C.3     
  21 C21           11.9419    -3.2801     0.6534 C.3     
  22 Cl22           4.2392    -1.4422     2.6592 Cl      
  23 C23           -1.2145     3.6256     0.0275 C.3     
  24 C24           -2.6637     4.1159     0.0371 C.3     
  25 N25           -2.6836     5.5847     0.0451 N.3     
  26 H26           -0.4983    -0.3791     0.8948 H       
  27 H27           -0.5153    -0.3696    -0.8850 H       
  28 H28           -2.0280     1.6644     0.0207 H       
  29 H29            1.5910    -0.5458     2.1169 H       
  30 H30            3.8810    -1.3128    -2.1797 H       
  31 H31            1.5463    -0.5328    -2.1479 H       
  32 H32            5.3713    -2.7572    -1.8963 H       
  33 H33            5.9412    -1.0710    -1.8937 H       
  34 H34            6.8161    -4.5582    -1.1456 H       
  35 H35            9.1319    -5.3414    -0.8503 H       
  36 H36           10.4976    -1.3010    -0.8461 H       
  37 H37            8.1829    -0.5182    -1.1498 H       
  38 H38           11.3867    -4.9376    -0.6056 H       
  39 H39           12.2150    -2.2857    -1.8699 H       
  40 H40           13.2526    -3.7215    -1.6956 H       
  41 H41           11.8231    -3.7798    -2.7545 H       
  42 H42           11.3339    -3.6176     1.4928 H       
  43 H43           12.9669    -3.6268     0.7847 H       
  44 H44           11.9294    -2.1910     0.6104 H       
  45 H45           -0.7014     3.9910     0.9171 H       
  46 H46           -0.7098     4.0007    -0.8628 H       
  47 H47           -3.1768     3.7505    -0.8525 H       
  48 H48           -3.1683     3.7408     0.9274 H       
  49 H49           -3.6304     5.9335     0.0515 H       
  50 H50           -2.1588     5.9492     0.8260 H       
@<TRIPOS>BOND
   1    1    2 1
   2    1    3 2
   3    1    4 am
   4    2    5 1
   5    2   26 1
   6    2   27 1
   7    4   23 1
   8    4   28 1
   9    5    6 ar
  10    5   10 ar
  11    6    7 ar
  12    6   29 1
  13    7    8 ar
  14    7   22 1
  15    8    9 ar
  16    8   11 1
  17    9   10 ar
  18    9   30 1
  19   10   31 1
  20   11   12 1
  21   12   13 1
  22   12   32 1
  23   12   33 1
  24   13   14 ar
  25   13   18 ar
  26   14   15 ar
  27   14   34 1
  28   15   16 ar
  29   15   35 1
  30   16   17 ar
  31   16   19 1
  32   17   18 ar
  33   17   36 1
  34   18   37 1
  35   19   20 1
  36   19   21 1
  37   19   38 1
  38   20   39 1
  39   20   40 1
  40   20   41 1
  41   21   42 1
  42   21   43 1
  43   21   44 1
  44   23   24 1
  45   23   45 1
  46   23   46 1
  47   24   25 1
  48   24   47 1
  49   24   48 1
  50   25   49 1
  51   25   50 1

#	End of record

