#	Name: ASD00170087
#	Creating user name:	WinNT
#	Creation time:	15. 06. 2019 18:31

#	Modifying user name:	WinNT
#	Modification time:	15. 06. 2019 18:31

#	Program:	/corina/corina34_cracker 3.40 0067  02.08.2006

@<TRIPOS>MOLECULE
ASD00170087
  43   46    0    0    0
SMALL
NO_CHARGES


@<TRIPOS>ATOM
   1 C1             0.0020     1.3497    -0.0676 C.2     
   2 C2             0.0217     0.0145     0.2011 C.2     
   3 C3            -1.3120    -0.5536     0.2780 C.2     
   4 C4            -2.3021     0.3755     0.0637 C.2     
   5 S5            -1.6489     1.9221    -0.2220 S.3     
   6 N6            -3.6505     0.0927     0.0829 N.pl3   
   7 C7             1.2018     2.1975    -0.2036 C.ar    
   8 C8             2.2678     1.7819    -1.0055 C.ar    
   9 C9             3.3862     2.5796    -1.1279 C.ar    
  10 C10            3.4543     3.7888    -0.4585 C.ar    
  11 C11            2.4024     4.2069     0.3375 C.ar    
  12 C12            1.2751     3.4224     0.4644 C.ar    
  13 C13           -1.5743    -1.9650     0.5537 C.2     
  14 C14           -1.6337    -2.4470     1.9506 C.ar    
  15 O15           -1.7440    -2.7440    -0.3669 O.2     
  16 C16            1.2627    -0.7687     0.3926 C.ar    
  17 C17            2.0753    -0.5337     1.5025 C.ar    
  18 C18            3.2309    -1.2673     1.6752 C.ar    
  19 C19            3.5850    -2.2338     0.7507 C.ar    
  20 C20            2.7837    -2.4716    -0.3519 C.ar    
  21 C21            1.6223    -1.7492    -0.5329 C.ar    
  22 C22           -1.7726    -3.8105     2.2161 C.ar    
  23 C23           -1.8269    -4.2540     3.5207 C.ar    
  24 C24           -1.7438    -3.3496     4.5666 C.ar    
  25 C25           -1.6059    -1.9956     4.3093 C.ar    
  26 C26           -1.5451    -1.5408     3.0089 C.ar    
  27 Cl27          -1.8135    -3.9153     6.2063 Cl      
  28 H28           -3.9566    -0.7945     0.3281 H       
  29 H29           -4.2937     0.7808    -0.1489 H       
  30 H30            2.2162     0.8381    -1.5280 H       
  31 H31            4.2109     2.2596    -1.7475 H       
  32 H32            4.3329     4.4090    -0.5574 H       
  33 H33            2.4626     5.1516     0.8574 H       
  34 H34            0.4547     3.7501     1.0857 H       
  35 H35            1.8003     0.2209     2.2245 H       
  36 H36            3.8607    -1.0864     2.5338 H       
  37 H37            4.4910    -2.8048     0.8901 H       
  38 H38            3.0656    -3.2274    -1.0699 H       
  39 H39            0.9976    -1.9357    -1.3939 H       
  40 H40           -1.8378    -4.5165     1.4015 H       
  41 H41           -1.9347    -5.3085     3.7274 H       
  42 H42           -1.5420    -1.2951     5.1288 H       
  43 H43           -1.4373    -0.4848     2.8094 H       
@<TRIPOS>BOND
   1    1    2 2
   2    1    7 1
   3    1    5 1
   4    2    3 1
   5    2   16 1
   6    3    4 2
   7    3   13 1
   8    4    5 1
   9    4    6 1
  10    6   28 1
  11    6   29 1
  12    7    8 ar
  13    7   12 ar
  14    8    9 ar
  15    8   30 1
  16    9   10 ar
  17    9   31 1
  18   10   11 ar
  19   10   32 1
  20   11   12 ar
  21   11   33 1
  22   12   34 1
  23   13   14 1
  24   13   15 2
  25   14   22 ar
  26   14   26 ar
  27   16   17 ar
  28   16   21 ar
  29   17   18 ar
  30   17   35 1
  31   18   19 ar
  32   18   36 1
  33   19   20 ar
  34   19   37 1
  35   20   21 ar
  36   20   38 1
  37   21   39 1
  38   22   23 ar
  39   22   40 1
  40   23   24 ar
  41   23   41 1
  42   24   25 ar
  43   24   27 1
  44   25   26 ar
  45   25   42 1
  46   26   43 1

#	End of record

