#	Name: ASD02030698
#	Creating user name:	WinNT
#	Creation time:	15. 06. 2019 20:15

#	Modifying user name:	WinNT
#	Modification time:	15. 06. 2019 20:15

#	Program:	/corina/corina34_cracker 3.40 0067  02.08.2006

@<TRIPOS>MOLECULE
ASD02030698
  27   27    0    0    0
SMALL
NO_CHARGES


@<TRIPOS>ATOM
   1 N1            -0.0169     1.3957     0.0097 N.2     
   2 N2             0.0021    -0.0041     0.0020 N.am    
   3 C3             1.1646    -0.6797    -0.0123 C.2     
   4 N4             2.3448    -0.0325    -0.0200 N.am    
   5 C5             2.3757     1.3164    -0.0131 C.2     
   6 C6             1.1074     2.0610     0.0026 C.2     
   7 O7             1.1494    -1.8958    -0.0178 O.2     
   8 O8             3.4386     1.9089    -0.0192 O.2     
   9 C9            -1.2627    -0.7434     0.0101 C.3     
  10 C10           -1.6892    -1.0085     1.4554 C.3     
  11 C11           -3.0100    -1.7806     1.4638 C.3     
  12 C12           -2.7965    -3.1633     0.8447 C.3     
  13 C13           -3.5000    -1.9372     2.9048 C.3     
  14 O14            1.1051     3.4197     0.0094 O.3     
  15 H15            3.1737    -0.5362    -0.0303 H       
  16 H16           -2.0303    -0.1556    -0.4933 H       
  17 H17           -1.1322    -1.6923    -0.5101 H       
  18 H18           -0.9215    -1.5962     1.9587 H       
  19 H19           -1.8197    -0.0596     1.9756 H       
  20 H20           -3.7541    -1.2341     0.8844 H       
  21 H21           -3.7375    -3.7134     0.8507 H       
  22 H22           -2.4474    -3.0518    -0.1819 H       
  23 H23           -2.0524    -3.7099     1.4241 H       
  24 H24           -3.6522    -0.9521     3.3458 H       
  25 H25           -4.4411    -2.4872     2.9108 H       
  26 H26           -2.7560    -2.4837     3.4842 H       
  27 H27            0.2211     3.8114     0.0197 H       
@<TRIPOS>BOND
   1    1    2 1
   2    1    6 2
   3    2    3 am
   4    2    9 1
   5    3    4 am
   6    3    7 2
   7    4    5 am
   8    4   15 1
   9    5    6 1
  10    5    8 2
  11    6   14 1
  12    9   10 1
  13    9   16 1
  14    9   17 1
  15   10   11 1
  16   10   18 1
  17   10   19 1
  18   11   12 1
  19   11   13 1
  20   11   20 1
  21   12   21 1
  22   12   22 1
  23   12   23 1
  24   13   24 1
  25   13   25 1
  26   13   26 1
  27   14   27 1

#	End of record

