#	Name: ASD03490115
#	Creating user name:	WinNT
#	Creation time:	15. 06. 2019 20:42

#	Modifying user name:	WinNT
#	Modification time:	15. 06. 2019 20:42

#	Program:	/corina/corina34_cracker 3.40 0067  02.08.2006

@<TRIPOS>MOLECULE
ASD03490115
  69   73    0    0    0
SMALL
NO_CHARGES


@<TRIPOS>ATOM
   1 C1            -0.6866    -0.5154     2.6826 C.3     
   2 C2             1.7883    -9.8245     0.7343 C.3     
   3 C3            -0.4975   -10.5284     1.4570 C.3     
   4 C4             1.0396    -9.4164     3.0828 C.3     
   5 C5            -4.9838    -6.8846    -5.8100 C.ar    
   6 C6             1.1764    -7.6851    -6.0470 C.ar    
   7 C7            -4.5857    -6.2266    -4.6624 C.ar    
   8 C8            -4.1837    -7.8682    -6.3589 C.ar    
   9 C9            -0.6311    -2.9520     3.2506 C.ar    
  10 C10           -0.5530    -2.3095     0.9429 C.ar    
  11 C11           -0.2044    -7.8214    -5.9953 C.ar    
  12 C12            1.7920   -12.1041    -7.5578 C.ar    
  13 C13           -0.5717    -4.2827     2.8855 C.ar    
  14 C14           -0.4928    -3.6384     0.5716 C.ar    
  15 C15            2.3130   -10.9016    -7.1950 C.ar    
  16 C16           -2.5720    -7.5381    -4.6051 C.ar    
  17 C17           -0.7126    -7.8604     0.0716 C.2     
  18 C18           -0.4527   -11.3265    -7.1414 C.ar    
  19 C19           -2.2556    -6.5339    -1.9590 C.2     
  20 N20           -0.0971   -13.5727    -7.9119 N.pl3   
  21 N21            1.9560    -8.6698    -6.4279 N.ar    
  22 N22            0.2128    -7.0016     1.8695 N.2     
  23 N23           -2.9754    -5.8837    -2.8948 N.am    
  24 N24           -1.7516    -5.8587    -0.9070 N.am    
  25 N25           -2.1663    -9.1929    -6.3134 N.pl3   
  26 O26           -2.0609    -7.7295    -2.0639 O.2     
  27 C27           -0.6216    -1.9664     2.2808 C.ar    
  28 C28            0.4110   -12.3268    -7.5338 C.ar    
  29 C29           -3.3781    -6.5515    -4.0567 C.ar    
  30 C30           -2.9748    -8.1979    -5.7582 C.ar    
  31 C31           -0.5023    -4.6304     1.5431 C.ar    
  32 C32           -0.7889    -9.0255    -6.3541 C.ar    
  33 C33            0.0500    -8.1222     1.2134 C.2     
  34 C34           -1.0068    -6.5315     0.0613 C.2     
  35 C35            1.4608    -9.8597    -6.7892 C.ar    
  36 C36            0.0628   -10.0793    -6.7639 C.ar    
  37 C37            0.5930    -9.4677     1.6203 C.3     
  38 N38           -0.4414    -5.9798     1.1694 N.pl3   
  39 H39            0.3239    -0.1319     2.8238 H       
  40 H40           -1.1861     0.0562     1.9004 H       
  41 H41           -1.2445    -0.4210     3.6142 H       
  42 H42            1.4701    -9.8610    -0.3076 H       
  43 H43            2.5652    -9.0688     0.8507 H       
  44 H44            2.1811   -10.7977     1.0286 H       
  45 H45           -0.1047   -11.5017     1.7513 H       
  46 H46           -1.3490   -10.2743     2.0882 H       
  47 H47           -0.8156   -10.5650     0.4151 H       
  48 H48            1.8165    -8.6608     3.1992 H       
  49 H49            0.1881    -9.1623     3.7140 H       
  50 H50            1.4324   -10.3897     3.3771 H       
  51 H51           -5.9248    -6.6329    -6.2764 H       
  52 H52            1.6212    -6.7409    -5.7695 H       
  53 H53           -5.2137    -5.4585    -4.2357 H       
  54 H54           -4.4979    -8.3810    -7.2560 H       
  55 H55           -0.6896    -2.6811     4.2945 H       
  56 H56           -0.5460    -1.5375     0.1877 H       
  57 H57           -0.8198    -6.9931    -5.6766 H       
  58 H58            2.4539   -12.8990    -7.8682 H       
  59 H59           -0.5788    -5.0521     3.6434 H       
  60 H60           -0.4389    -3.9058    -0.4734 H       
  61 H61            3.3816   -10.7470    -7.2187 H       
  62 H62           -1.6327    -7.7921    -4.1364 H       
  63 H63           -1.0113    -8.5835    -0.6729 H       
  64 H64           -1.5181   -11.5027    -7.1248 H       
  65 H65            0.5072   -14.2789    -8.1896 H       
  66 H66           -1.0539   -13.7311    -7.8968 H       
  67 H67           -3.2143    -4.9529    -2.7629 H       
  68 H68           -1.9070    -4.9049    -0.8234 H       
  69 H69           -2.5674   -10.0007    -6.6704 H       
@<TRIPOS>BOND
   1    1   27 1
   2    1   39 1
   3    1   40 1
   4    1   41 1
   5    2   37 1
   6    2   42 1
   7    2   43 1
   8    2   44 1
   9    3   37 1
  10    3   45 1
  11    3   46 1
  12    3   47 1
  13    4   37 1
  14    4   48 1
  15    4   49 1
  16    4   50 1
  17    5    7 ar
  18    5    8 ar
  19    5   51 1
  20    6   11 ar
  21    6   21 ar
  22    6   52 1
  23    7   29 ar
  24    7   53 1
  25    8   30 ar
  26    8   54 1
  27    9   13 ar
  28    9   27 ar
  29    9   55 1
  30   10   14 ar
  31   10   27 ar
  32   10   56 1
  33   11   32 ar
  34   11   57 1
  35   12   15 ar
  36   12   28 ar
  37   12   58 1
  38   13   31 ar
  39   13   59 1
  40   14   31 ar
  41   14   60 1
  42   15   35 ar
  43   15   61 1
  44   16   29 ar
  45   16   30 ar
  46   16   62 1
  47   17   33 1
  48   17   34 2
  49   17   63 1
  50   18   28 ar
  51   18   36 ar
  52   18   64 1
  53   19   23 am
  54   19   24 am
  55   19   26 2
  56   20   28 1
  57   20   65 1
  58   20   66 1
  59   21   35 ar
  60   22   33 2
  61   22   38 1
  62   23   29 1
  63   23   67 1
  64   24   34 1
  65   24   68 1
  66   25   30 1
  67   25   32 1
  68   25   69 1
  69   31   38 1
  70   32   36 ar
  71   33   37 1
  72   34   38 1
  73   35   36 ar

#	End of record

