#	Name: ASD01915853
#	Creating user name:	WinNT
#	Creation time:	15. 06. 2019 20:06

#	Modifying user name:	WinNT
#	Modification time:	15. 06. 2019 20:06

#	Program:	/corina/corina34_cracker 3.40 0067  02.08.2006

@<TRIPOS>MOLECULE
ASD01915853
  43   46    0    0    0
SMALL
NO_CHARGES


@<TRIPOS>ATOM
   1 C1            -0.0043     1.4631     0.2176 C.2     
   2 N2             0.0615     0.1099    -0.0288 N.pl3   
   3 C3            -1.1510    -0.6743    -0.2922 C.3     
   4 C4            -2.3298    -0.0462     0.4494 C.3     
   5 N5            -2.4043     1.3988     0.2637 N.am    
   6 C6            -1.2917     2.1721     0.2677 C.2     
   7 C7             1.2784     1.9004     0.3937 C.2     
   8 C8             2.0745     0.7558     0.2522 C.2     
   9 N9             1.2813    -0.2615     0.0091 N.2     
  10 C10            3.5768     0.7024     0.3593 C.3     
  11 O11            4.0818     2.0113     0.6311 O.3     
  12 C12            5.4288     2.1388     0.7583 C.ar    
  13 O13           -1.3542     3.3861     0.3108 O.2     
  14 C14            5.9873     3.3809     1.0223 C.ar    
  15 C15            6.2472     1.0259     0.6300 C.ar    
  16 C16            7.6162     1.1582     0.7597 C.ar    
  17 C17            8.1708     2.3982     1.0172 C.ar    
  18 C18            7.3569     3.5079     1.1512 C.ar    
  19 C19           -3.6482     1.9975     0.0773 C.ar    
  20 C20           -4.8072     1.2633     0.3045 C.ar    
  21 C21           -6.0360     1.8702     0.1156 C.ar    
  22 C22           -6.0638     3.1960    -0.2956 C.ar    
  23 C23           -4.8737     3.8648    -0.5024 C.ar    
  24 N24           -3.7163     3.2617    -0.3091 N.ar    
  25 C25           -4.8971     5.3040    -0.9488 C.3     
  26 Cl26          -4.9072     6.3815     0.4968 Cl      
  27 H27           -1.3557    -0.6791    -1.3628 H       
  28 H28           -1.0056    -1.6970     0.0555 H       
  29 H29           -3.2540    -0.4961     0.0869 H       
  30 H30           -2.2304    -0.2598     1.5137 H       
  31 H31            1.6072     2.9088     0.5973 H       
  32 H32            3.8596     0.0287     1.1682 H       
  33 H33            3.9953     0.3391    -0.5793 H       
  34 H34            5.3520     4.2480     1.1267 H       
  35 H35            5.8145     0.0570     0.4292 H       
  36 H36            8.2537     0.2921     0.6603 H       
  37 H37            9.2413     2.4995     1.1183 H       
  38 H38            7.7925     4.4755     1.3520 H       
  39 H39           -4.7488     0.2331     0.6236 H       
  40 H40           -6.9529     1.3248     0.2839 H       
  41 H41           -7.0066     3.6990    -0.4525 H       
  42 H42           -4.0126     5.5121    -1.5508 H       
  43 H43           -5.7923     5.4854    -1.5435 H       
@<TRIPOS>BOND
   1    1    2 1
   2    1    7 2
   3    1    6 1
   4    2    3 1
   5    2    9 1
   6    3    4 1
   7    3   27 1
   8    3   28 1
   9    4    5 1
  10    4   29 1
  11    4   30 1
  12    5    6 am
  13    5   19 1
  14    6   13 2
  15    7    8 1
  16    7   31 1
  17    8    9 2
  18    8   10 1
  19   10   11 1
  20   10   32 1
  21   10   33 1
  22   11   12 1
  23   12   14 ar
  24   12   15 ar
  25   14   18 ar
  26   14   34 1
  27   15   16 ar
  28   15   35 1
  29   16   17 ar
  30   16   36 1
  31   17   18 ar
  32   17   37 1
  33   18   38 1
  34   19   20 ar
  35   19   24 ar
  36   20   21 ar
  37   20   39 1
  38   21   22 ar
  39   21   40 1
  40   22   23 ar
  41   22   41 1
  42   23   24 ar
  43   23   25 1
  44   25   26 1
  45   25   42 1
  46   25   43 1

#	End of record

