#	Name: ASD00431475
#	Creating user name:	WinNT
#	Creation time:	15. 06. 2019 18:35

#	Modifying user name:	WinNT
#	Modification time:	15. 06. 2019 18:35

#	Program:	/corina/corina34_cracker 3.40 0067  02.08.2006

@<TRIPOS>MOLECULE
ASD00431475
  39   41    0    0    0
SMALL
NO_CHARGES


@<TRIPOS>ATOM
   1 C1            -3.5126     6.5725    -4.0269 C.2     
   2 C2            -4.4244     6.4091    -5.2156 C.3     
   3 S3            -1.7036     8.1947    -5.5401 S.3     
   4 N4            -0.4110     8.7645    -4.8653 N.2     
   5 C5            -0.3849     8.3620    -3.6178 C.2     
   6 N6            -1.3846     7.6087    -3.2084 N.2     
   7 C7            -2.2845     7.3694    -4.1472 C.2     
   8 S8             0.8775     8.2656    -1.0198 S.3     
   9 C9             2.3462     9.1325    -0.9036 C.2     
  10 N10            2.6308     9.6902    -2.0393 N.2     
  11 C11            1.7840     9.5010    -3.0289 C.2     
  12 C12            0.7195     8.7371    -2.7100 C.2     
  13 O13            3.1045     9.2241     0.2151 O.3     
  14 C14            4.2994     9.8666     0.1255 C.ar    
  15 C15            4.3363    11.2327    -0.1130 C.ar    
  16 C16            5.5501    11.8853    -0.2041 C.ar    
  17 C17            6.7323    11.1747    -0.0570 C.ar    
  18 C18            6.6955     9.8088     0.1815 C.ar    
  19 C19            5.4817     9.1571     0.2783 C.ar    
  20 O20            7.9273    11.8172    -0.1471 O.3     
  21 C21            9.1018    11.0395     0.0935 C.3     
  22 C22           10.3034    11.7100    -0.5754 C.3     
  23 C23            9.3472    10.9392     1.6004 C.3     
  24 O24           -3.7954     6.0502    -2.9694 O.2     
  25 H25           -3.8787     5.9307    -6.0290 H       
  26 H26           -5.2773     5.7902    -4.9370 H       
  27 H27           -4.7765     7.3880    -5.5407 H       
  28 H28            1.9294     9.9218    -4.0128 H       
  29 H29            3.4158    11.7859    -0.2279 H       
  30 H30            5.5789    12.9487    -0.3902 H       
  31 H31            7.6160     9.2556     0.2957 H       
  32 H32            5.4529     8.0943     0.4685 H       
  33 H33            8.9667    10.0400    -0.3199 H       
  34 H34           10.4384    12.7094    -0.1620 H       
  35 H35           11.1992    11.1167    -0.3919 H       
  36 H36           10.1285    11.7814    -1.6490 H       
  37 H37            8.4912    10.4615     2.0769 H       
  38 H38           10.2430    10.3460     1.7839 H       
  39 H39            9.4823    11.9387     2.0138 H       
@<TRIPOS>BOND
   1    1    2 1
   2    1    7 1
   3    1   24 2
   4    2   25 1
   5    2   26 1
   6    2   27 1
   7    3    4 1
   8    3    7 1
   9    4    5 2
  10    5    6 1
  11    5   12 1
  12    6    7 2
  13    8    9 1
  14    8   12 1
  15    9   10 2
  16    9   13 1
  17   10   11 1
  18   11   12 2
  19   11   28 1
  20   13   14 1
  21   14   15 ar
  22   14   19 ar
  23   15   16 ar
  24   15   29 1
  25   16   17 ar
  26   16   30 1
  27   17   18 ar
  28   17   20 1
  29   18   19 ar
  30   18   31 1
  31   19   32 1
  32   20   21 1
  33   21   22 1
  34   21   23 1
  35   21   33 1
  36   22   34 1
  37   22   35 1
  38   22   36 1
  39   23   37 1
  40   23   38 1
  41   23   39 1

#	End of record

