#	Name: ASD01100039
#	Creating user name:	WinNT
#	Creation time:	15. 06. 2019 18:58

#	Modifying user name:	WinNT
#	Modification time:	15. 06. 2019 18:58

#	Program:	/corina/corina34_cracker 3.40 0067  02.08.2006

@<TRIPOS>MOLECULE
ASD01100039
  41   43    0    0    0
SMALL
NO_CHARGES


@<TRIPOS>ATOM
   1 C1             0.1620     1.2945    -0.9224 C.ar    
   2 C2             0.2403    -0.0850    -0.9921 C.ar    
   3 C3             1.4414    -0.7230    -0.7380 C.ar    
   4 C4             2.5623     0.0182    -0.4148 C.ar    
   5 C5             2.4835     1.3966    -0.3453 C.ar    
   6 C6             1.2837     2.0346    -0.5991 C.ar    
   7 C7             3.7060     2.2041     0.0076 C.3     
   8 C8             3.4367     3.0066     1.2821 C.3     
   9 C9             3.2203     2.0463     2.4534 C.3     
  10 C10            4.6350     3.9106     1.5784 C.3     
  11 Cl11          -1.1683    -1.0153    -1.3975 Cl      
  12 C12            4.0277     3.1483    -1.1220 C.2     
  13 N13            5.1797     3.8477    -1.1083 N.am    
  14 O14            3.2501     3.2788    -2.0433 O.2     
  15 C15            5.4384     4.7753    -2.1033 C.2     
  16 N16            6.5207     5.5060    -2.1865 N.2     
  17 C17            6.4478     6.3061    -3.2818 C.ar    
  18 C18            5.2209     6.0354    -3.9101 C.ar    
  19 N19            4.6049     5.0591    -3.1463 N.pl3   
  20 C20            7.3069     7.2604    -3.8331 C.ar    
  21 C21            6.9437     7.9241    -4.9832 C.ar    
  22 C22            5.7306     7.6532    -5.5993 C.ar    
  23 C23            4.8717     6.7135    -5.0685 C.ar    
  24 H24           -0.7742     1.7933    -1.1250 H       
  25 H25            1.5030    -1.7998    -0.7919 H       
  26 H26            3.4999    -0.4797    -0.2161 H       
  27 H27            1.2227     3.1115    -0.5447 H       
  28 H28            4.5494     1.5334     0.1720 H       
  29 H29            2.5452     3.6185     1.1446 H       
  30 H30            4.1118     1.4343     2.5909 H       
  31 H31            3.0284     2.6180     3.3613 H       
  32 H32            2.3666     1.4023     2.2423 H       
  33 H33            4.8522     4.5241     0.7041 H       
  34 H34            4.4030     4.5552     2.4262 H       
  35 H35            5.5035     3.2963     1.8161 H       
  36 H36            5.8276     3.7013    -0.4014 H       
  37 H37            3.7393     4.6560    -3.3171 H       
  38 H38            8.2525     7.4769    -3.3583 H       
  39 H39            7.6080     8.6616    -5.4088 H       
  40 H40            5.4571     8.1813    -6.5008 H       
  41 H41            3.9287     6.5073    -5.5530 H       
@<TRIPOS>BOND
   1    1    2 ar
   2    1    6 ar
   3    1   24 1
   4    2    3 ar
   5    2   11 1
   6    3    4 ar
   7    3   25 1
   8    4    5 ar
   9    4   26 1
  10    5    6 ar
  11    5    7 1
  12    6   27 1
  13    7    8 1
  14    7   12 1
  15    7   28 1
  16    8    9 1
  17    8   10 1
  18    8   29 1
  19    9   30 1
  20    9   31 1
  21    9   32 1
  22   10   33 1
  23   10   34 1
  24   10   35 1
  25   12   13 am
  26   12   14 2
  27   13   15 1
  28   13   36 1
  29   15   16 2
  30   15   19 1
  31   16   17 1
  32   17   18 ar
  33   17   20 ar
  34   18   19 1
  35   18   23 ar
  36   19   37 1
  37   20   21 ar
  38   20   38 1
  39   21   22 ar
  40   21   39 1
  41   22   23 ar
  42   22   40 1
  43   23   41 1

#	End of record

