#	Name: ASD01900489
#	Creating user name:	WinNT
#	Creation time:	15. 06. 2019 19:52

#	Modifying user name:	WinNT
#	Modification time:	15. 06. 2019 19:52

#	Program:	/corina/corina34_cracker 3.40 0067  02.08.2006

@<TRIPOS>MOLECULE
ASD01900489
  43   47    0    0    0
SMALL
NO_CHARGES


@<TRIPOS>ATOM
   1 C1            -0.2677     1.5328    -0.4136 C.ar    
   2 C2            -0.3479     0.1535    -0.5684 C.ar    
   3 C3             0.7775    -0.5688    -0.9140 C.ar    
   4 C4             1.9890     0.0832    -1.1067 C.ar    
   5 C5             2.0686     1.4610    -0.9515 C.ar    
   6 C6             0.9434     2.1836    -0.6064 C.ar    
   7 N7            -1.4098     2.2663    -0.0690 N.pl3   
   8 N8             3.1294    -0.6484    -1.4568 N.pl3   
   9 N9            -0.5974     5.6484    -1.1070 N.ar    
  10 C10           -0.6511     4.3405    -1.0703 C.ar    
  11 C11           -1.3725     3.6625    -0.0794 C.ar    
  12 C12           -2.0476     4.3830     0.8877 C.ar    
  13 C13           -1.9794     5.7870     0.8335 C.ar    
  14 C14           -2.6389     6.5861     1.7817 C.ar    
  15 C15           -2.5498     7.9422     1.6977 C.ar    
  16 C16           -1.8130     8.5481     0.6824 C.ar    
  17 C17           -1.1619     7.8042    -0.2533 C.ar    
  18 C18           -1.2288     6.4011    -0.2002 C.ar    
  19 C19            5.6789    -0.7693    -1.4927 C.ar    
  20 C20            6.6746     0.0260    -0.8940 C.ar    
  21 C21            8.0152    -0.2939    -1.1064 C.ar    
  22 C22            8.3086    -1.3849    -1.9006 C.ar    
  23 C23            7.2750    -2.1253    -2.4596 C.ar    
  24 N24            6.0171    -1.8106    -2.2493 N.ar    
  25 N25            4.6504     0.8448    -0.3282 N.2     
  26 N26            6.0323     1.0074    -0.1863 N.pl3   
  27 C27            4.3970    -0.1840    -1.0928 C.2     
  28 Cl28          -1.8620    -0.6607    -0.3269 Cl      
  29 H29            0.7157    -1.6403    -1.0340 H       
  30 H30            3.0107     1.9676    -1.1007 H       
  31 H31            1.0056     3.2551    -0.4862 H       
  32 H32           -2.2267     1.8048     0.1770 H       
  33 H33            3.0405    -1.4777    -1.9520 H       
  34 H34           -0.1265     3.7705    -1.8228 H       
  35 H35           -2.6109     3.8830     1.6617 H       
  36 H36           -3.2136     6.1275     2.5728 H       
  37 H37           -3.0572     8.5560     2.4272 H       
  38 H38           -1.7577     9.6257     0.6367 H       
  39 H39           -0.5955     8.2904    -1.0338 H       
  40 H40            8.8030     0.2960    -0.6619 H       
  41 H41            9.3361    -1.6607    -2.0863 H       
  42 H42            7.5104    -2.9775    -3.0799 H       
  43 H43            6.4665     1.7036     0.3311 H       
@<TRIPOS>BOND
   1    1    2 ar
   2    1    6 ar
   3    1    7 1
   4    2    3 ar
   5    2   28 1
   6    3    4 ar
   7    3   29 1
   8    4    5 ar
   9    4    8 1
  10    5    6 ar
  11    5   30 1
  12    6   31 1
  13    7   11 1
  14    7   32 1
  15    8   27 1
  16    8   33 1
  17    9   10 ar
  18    9   18 ar
  19   10   11 ar
  20   10   34 1
  21   11   12 ar
  22   12   13 ar
  23   12   35 1
  24   13   14 ar
  25   13   18 ar
  26   14   15 ar
  27   14   36 1
  28   15   16 ar
  29   15   37 1
  30   16   17 ar
  31   16   38 1
  32   17   18 ar
  33   17   39 1
  34   19   20 ar
  35   19   24 ar
  36   19   27 1
  37   20   21 ar
  38   20   26 1
  39   21   22 ar
  40   21   40 1
  41   22   23 ar
  42   22   41 1
  43   23   24 ar
  44   23   42 1
  45   25   26 1
  46   25   27 2
  47   26   43 1

#	End of record

