#	Name: ASD06170016
#	Creating user name:	WinNT
#	Creation time:	15. 06. 2019 21:05

#	Modifying user name:	WinNT
#	Modification time:	15. 06. 2019 21:05

#	Program:	/corina/corina34_cracker 3.40 0067  02.08.2006

@<TRIPOS>MOLECULE
ASD06170016
  66   71    0    0    0
SMALL
NO_CHARGES


@<TRIPOS>ATOM
   1 N1            -0.2121     0.6391     0.9472 N.pl3   
   2 N2            -0.0054    -0.3352    -0.0336 N.am    
   3 C3             1.3183    -0.5596    -0.1554 C.2     
   4 C4             1.9921     0.3247     0.8050 C.2     
   5 C5             0.9874     1.0400     1.4555 C.2     
   6 C6             3.4359     0.4332     1.0345 C.2     
   7 O7             3.8614     1.1920     1.8858 O.2     
   8 N8             4.2921    -0.3072     0.3029 N.am    
   9 C9             1.9789     4.1949     3.2418 C.ar    
  10 C10            1.8129     3.2752     2.2253 C.ar    
  11 C11            1.1878     2.0550     2.5100 C.ar    
  12 C12            0.7578     1.8242     3.8225 C.ar    
  13 C13            0.9654     2.8012     4.7760 C.ar    
  14 N14            1.5586     3.9366     4.4644 N.ar    
  15 C15           -1.0091    -0.9737    -0.7691 C.ar    
  16 C16           -2.1645    -1.4121    -0.1353 C.ar    
  17 C17           -3.1537    -2.0423    -0.8646 C.ar    
  18 C18           -2.9946    -2.2370    -2.2244 C.ar    
  19 C19           -1.8452    -1.8021    -2.8584 C.ar    
  20 C20           -0.8550    -1.1657    -2.1360 C.ar    
  21 O21            1.8531    -1.3455    -0.9155 O.2     
  22 C22           -1.5190     1.1554     1.3614 C.3     
  23 C23            5.6576    -0.3082     0.6123 C.ar    
  24 C24            6.2489     0.8279     1.1496 C.ar    
  25 C25            7.5969     0.8258     1.4552 C.ar    
  26 C26            8.3594    -0.3131     1.2244 C.ar    
  27 C27            7.7680    -1.4466     0.6880 C.ar    
  28 C28            6.4196    -1.4467     0.3873 C.ar    
  29 O29            9.6858    -0.3155     1.5245 O.3     
  30 N30           10.7486    -0.5633     5.5017 N.ar    
  31 C31            9.4888    -0.6636     5.1476 C.ar    
  32 C32            9.0933    -0.5857     3.8185 C.ar    
  33 C33           10.0429    -0.3959     2.8297 C.ar    
  34 C34           11.3964    -0.2887     3.2224 C.ar    
  35 C35           12.4148    -0.0952     2.2777 C.ar    
  36 C36           13.7087     0.0046     2.6873 C.ar    
  37 C37           14.0385    -0.0840     4.0428 C.ar    
  38 C38           13.0619    -0.2737     4.9942 C.ar    
  39 C39           11.7190    -0.3795     4.5985 C.ar    
  40 O40           15.3378     0.0180     4.4256 O.3     
  41 C41           16.3051     0.2138     3.3922 C.3     
  42 F42            8.1732     1.9304     1.9775 F       
  43 H43            3.9622    -0.8393    -0.4381 H       
  44 H44            2.4638     5.1372     3.0334 H       
  45 H45            2.1594     3.4938     1.2260 H       
  46 H46            0.2708     0.8966     4.0848 H       
  47 H47            0.6371     2.6329     5.7910 H       
  48 H48           -2.2892    -1.2607     0.9267 H       
  49 H49           -4.0523    -2.3837    -0.3722 H       
  50 H50           -3.7697    -2.7300    -2.7924 H       
  51 H51           -1.7239    -1.9559    -3.9205 H       
  52 H52            0.0404    -0.8220    -2.6326 H       
  53 H53           -2.2948     0.7373     0.7199 H       
  54 H54           -1.7108     0.8710     2.3960 H       
  55 H55           -1.5239     2.2421     1.2764 H       
  56 H56            5.6558     1.7126     1.3283 H       
  57 H57            8.3610    -2.3313     0.5089 H       
  58 H58            5.9589    -2.3316    -0.0264 H       
  59 H59            8.7391    -0.8119     5.9107 H       
  60 H60            8.0488    -0.6721     3.5577 H       
  61 H61           12.1726    -0.0258     1.2274 H       
  62 H62           14.4899     0.1537     1.9566 H       
  63 H63           13.3272    -0.3412     6.0389 H       
  64 H64           17.2999     0.2784     3.8332 H       
  65 H65           16.2695    -0.6253     2.6974 H       
  66 H66           16.0839     1.1377     2.8578 H       
@<TRIPOS>BOND
   1    1    2 1
   2    1    5 1
   3    1   22 1
   4    2    3 am
   5    2   15 1
   6    3    4 1
   7    3   21 2
   8    4    5 2
   9    4    6 1
  10    5   11 1
  11    6    7 2
  12    6    8 am
  13    8   23 1
  14    8   43 1
  15    9   10 ar
  16    9   14 ar
  17    9   44 1
  18   10   11 ar
  19   10   45 1
  20   11   12 ar
  21   12   13 ar
  22   12   46 1
  23   13   14 ar
  24   13   47 1
  25   15   16 ar
  26   15   20 ar
  27   16   17 ar
  28   16   48 1
  29   17   18 ar
  30   17   49 1
  31   18   19 ar
  32   18   50 1
  33   19   20 ar
  34   19   51 1
  35   20   52 1
  36   22   53 1
  37   22   54 1
  38   22   55 1
  39   23   24 ar
  40   23   28 ar
  41   24   25 ar
  42   24   56 1
  43   25   26 ar
  44   25   42 1
  45   26   27 ar
  46   26   29 1
  47   27   28 ar
  48   27   57 1
  49   28   58 1
  50   29   33 1
  51   30   31 ar
  52   30   39 ar
  53   31   32 ar
  54   31   59 1
  55   32   33 ar
  56   32   60 1
  57   33   34 ar
  58   34   35 ar
  59   34   39 ar
  60   35   36 ar
  61   35   61 1
  62   36   37 ar
  63   36   62 1
  64   37   38 ar
  65   37   40 1
  66   38   39 ar
  67   38   63 1
  68   40   41 1
  69   41   64 1
  70   41   65 1
  71   41   66 1

#	End of record

