#	Name: ASD01890497
#	Creating user name:	WinNT
#	Creation time:	15. 06. 2019 19:51

#	Modifying user name:	WinNT
#	Modification time:	15. 06. 2019 19:51

#	Program:	/corina/corina34_cracker 3.40 0067  02.08.2006

@<TRIPOS>MOLECULE
ASD01890497
  28   29    0    0    0
SMALL
NO_CHARGES


@<TRIPOS>ATOM
   1 C1            -0.0168     1.3850     0.0097 C.ar    
   2 C2             0.0021    -0.0041     0.0020 C.ar    
   3 C3             1.2265    -0.7014    -0.0134 C.ar    
   4 C4             2.4063    -0.0327    -0.0206 C.ar    
   5 C5             2.4193     1.3754    -0.0127 C.ar    
   6 C6             3.6294     2.0852    -0.0190 C.ar    
   7 C7             3.6102     3.4621    -0.0105 C.ar    
   8 C8             2.3979     4.1605     0.0042 C.ar    
   9 C9             1.2113     3.4982     0.0110 C.ar    
  10 C10            1.1936     2.0906     0.0019 C.ar    
  11 C11           -1.2633    -0.7512     0.0106 C.2     
  12 O12           -1.2516    -1.9640     0.0040 O.2     
  13 O13            4.7812     4.1499    -0.0161 O.3     
  14 C14            4.6958     5.5763    -0.0069 C.3     
  15 O15            4.3301     6.0231     1.3003 O.3     
  16 C16            5.3907     5.9553     2.2556 C.3     
  17 H17           -0.9568     1.9167     0.0170 H       
  18 H18            1.2253    -1.7814    -0.0193 H       
  19 H19            3.3368    -0.5807    -0.0321 H       
  20 H20            4.5702     1.5550    -0.0300 H       
  21 H21            2.4053     5.2404     0.0106 H       
  22 H22            0.2834     4.0508     0.0231 H       
  23 H23           -2.2038    -0.2204     0.0228 H       
  24 H24            5.6627     6.0000    -0.2783 H       
  25 H25            3.9427     5.8999    -0.7254 H       
  26 H26            5.0329     6.3115     3.2216 H       
  27 H27            5.7282     4.9233     2.3512 H       
  28 H28            6.2200     6.5795     1.9227 H       
@<TRIPOS>BOND
   1    1    2 ar
   2    1   10 ar
   3    1   17 1
   4    2    3 ar
   5    2   11 1
   6    3    4 ar
   7    3   18 1
   8    4    5 ar
   9    4   19 1
  10    5    6 ar
  11    5   10 ar
  12    6    7 ar
  13    6   20 1
  14    7    8 ar
  15    7   13 1
  16    8    9 ar
  17    8   21 1
  18    9   10 ar
  19    9   22 1
  20   11   12 2
  21   11   23 1
  22   13   14 1
  23   14   15 1
  24   14   24 1
  25   14   25 1
  26   15   16 1
  27   16   26 1
  28   16   27 1
  29   16   28 1

#	End of record

