#	Name: ASD01180191
#	Creating user name:	WinNT
#	Creation time:	15. 06. 2019 19:06

#	Modifying user name:	WinNT
#	Modification time:	15. 06. 2019 19:06

#	Program:	/corina/corina34_cracker 3.40 0067  02.08.2006

@<TRIPOS>MOLECULE
ASD01180191
  62   64    0    0    0
SMALL
NO_CHARGES


@<TRIPOS>ATOM
   1 C1             0.6271     1.2598    -0.5720 C.ar    
   2 C2             0.5624    -0.1125    -0.4853 C.ar    
   3 C3             1.7336    -0.8699    -0.5144 C.ar    
   4 C4             2.9718    -0.2380    -0.6314 C.ar    
   5 C5             3.0394     1.1342    -0.7182 C.ar    
   6 C6             1.8669     1.8942    -0.6892 C.ar    
   7 C7             1.6623    -2.3480    -0.4204 C.ar    
   8 C8             2.8306    -3.1080    -0.4492 C.ar    
   9 C9             2.7582    -4.4833    -0.3614 C.ar    
  10 C10            1.5293    -5.1079    -0.2450 C.ar    
  11 C11            0.3667    -4.3589    -0.2164 C.ar    
  12 C12            0.4272    -2.9825    -0.2972 C.ar    
  13 C13            1.4569    -6.6101    -0.1496 C.3     
  14 C14            1.2732    -7.0200     1.3130 C.3     
  15 N15            0.3222    -7.0955    -0.9389 N.pl3   
  16 C16            0.3530    -8.3669    -1.4864 C.ar    
  17 N17           -0.6209    -8.7523    -2.2996 N.ar    
  18 C18           -0.6329    -9.9516    -2.8431 C.ar    
  19 C19            0.3908   -10.8615    -2.5749 C.ar    
  20 C20            1.4344   -10.4800    -1.7175 C.ar    
  21 C21            1.4104    -9.2218    -1.1794 C.ar    
  22 C22            0.3758   -12.2054    -3.1836 C.2     
  23 N23           -0.6313   -12.5619    -4.0053 N.am    
  24 O24            1.2721   -12.9913    -2.9440 O.2     
  25 C25           -0.6461   -13.8963    -4.6097 C.3     
  26 C26           -1.8875   -14.0428    -5.4919 C.3     
  27 C27           -1.9028   -15.4155    -6.1137 C.2     
  28 O28           -2.9058   -15.7705    -6.9320 O.3     
  29 O29           -1.0121   -16.1965    -5.8756 O.2     
  30 C30            2.5246    -6.6441     2.1090 C.3     
  31 C31            2.2901    -6.9310     3.5935 C.3     
  32 C32            3.7127    -7.4698     1.6114 C.3     
  33 C33            1.9357     3.3217    -0.7799 C.1     
  34 N34            1.9902     4.4541    -0.8519 N.1     
  35 H35           -0.2800     1.8456    -0.5539 H       
  36 H36           -0.3955    -0.6031    -0.3943 H       
  37 H37            3.8777    -0.8255    -0.6534 H       
  38 H38            3.9981     1.6232    -0.8084 H       
  39 H39            3.7905    -2.6215    -0.5403 H       
  40 H40            3.6626    -5.0732    -0.3839 H       
  41 H41           -0.5900    -4.8519    -0.1262 H       
  42 H42           -0.4811    -2.3987    -0.2748 H       
  43 H43            2.3797    -7.0436    -0.5352 H       
  44 H44            0.4088    -6.5028     1.7294 H       
  45 H45            1.1153    -8.0969     1.3715 H       
  46 H46           -0.4507    -6.5261    -1.0780 H       
  47 H47           -1.4414   -10.2335    -3.5012 H       
  48 H48            2.2404   -11.1622    -1.4911 H       
  49 H49            2.1985    -8.8976    -0.5160 H       
  50 H50           -1.3463   -11.9349    -4.1964 H       
  51 H51            0.2491   -14.0301    -5.2170 H       
  52 H52           -0.6679   -14.6510    -3.8235 H       
  53 H53           -2.7827   -13.9091    -4.8846 H       
  54 H54           -1.8657   -13.2881    -6.2781 H       
  55 H55           -2.8722   -16.6613    -7.3068 H       
  56 H56            2.7368    -5.5836     1.9730 H       
  57 H57            2.0779    -7.9914     3.7295 H       
  58 H58            3.1816    -6.6632     4.1605 H       
  59 H59            1.4437    -6.3427     3.9479 H       
  60 H60            3.9402    -7.1951     0.5815 H       
  61 H61            4.5809    -7.2728     2.2403 H       
  62 H62            3.4633    -8.5299     1.6581 H       
@<TRIPOS>BOND
   1    1    2 ar
   2    1    6 ar
   3    1   35 1
   4    2    3 ar
   5    2   36 1
   6    3    4 ar
   7    3    7 1
   8    4    5 ar
   9    4   37 1
  10    5    6 ar
  11    5   38 1
  12    6   33 1
  13    7    8 ar
  14    7   12 ar
  15    8    9 ar
  16    8   39 1
  17    9   10 ar
  18    9   40 1
  19   10   11 ar
  20   10   13 1
  21   11   12 ar
  22   11   41 1
  23   12   42 1
  24   13   14 1
  25   13   15 1
  26   13   43 1
  27   14   30 1
  28   14   44 1
  29   14   45 1
  30   15   16 1
  31   15   46 1
  32   16   17 ar
  33   16   21 ar
  34   17   18 ar
  35   18   19 ar
  36   18   47 1
  37   19   20 ar
  38   19   22 1
  39   20   21 ar
  40   20   48 1
  41   21   49 1
  42   22   23 am
  43   22   24 2
  44   23   25 1
  45   23   50 1
  46   25   26 1
  47   25   51 1
  48   25   52 1
  49   26   27 1
  50   26   53 1
  51   26   54 1
  52   27   28 1
  53   27   29 2
  54   28   55 1
  55   30   31 1
  56   30   32 1
  57   30   56 1
  58   31   57 1
  59   31   58 1
  60   31   59 1
  61   32   60 1
  62   32   61 1
  63   32   62 1
  64   33   34 3

#	End of record

