#	Name: ASD01911799
#	Creating user name:	WinNT
#	Creation time:	15. 06. 2019 19:58

#	Modifying user name:	WinNT
#	Modification time:	15. 06. 2019 19:58

#	Program:	/corina/corina34_cracker 3.40 0067  02.08.2006

@<TRIPOS>MOLECULE
ASD01911799
  39   41    0    0    0
SMALL
NO_CHARGES


@<TRIPOS>ATOM
   1 N1            -0.5056     1.5398     0.6768 N.pl3   
   2 C2            -0.7704     0.2427     1.0976 C.2     
   3 C3             0.2592     2.0361     2.8503 C.2     
   4 N4             0.0026     0.7829     3.2514 N.2     
   5 C5            -0.4961    -0.1109     2.4301 C.2     
   6 C6            -1.2851    -0.4600     0.0197 C.2     
   7 C7            -1.3274     0.4419    -1.0698 C.2     
   8 C8            -0.8340     1.6558    -0.6197 C.2     
   9 N9            -1.6838    -1.7991     0.0103 N.pl3   
  10 C10           -0.7935    -2.7906    -0.4120 C.ar    
  11 C11           -1.1488    -4.1329    -0.3186 C.ar    
  12 C12            0.4452    -2.4383    -0.9309 C.ar    
  13 C13            1.3230    -3.4205    -1.3480 C.ar    
  14 C14            0.9698    -4.7539    -1.2499 C.ar    
  15 C15           -0.2656    -5.1100    -0.7378 C.ar    
  16 F16           -2.3549    -4.4803     0.1813 F       
  17 I17            2.3048    -6.2381    -1.8853 I       
  18 C18           -1.8026     0.1440    -2.4312 C.2     
  19 N19           -1.8552     1.1231    -3.3559 N.am    
  20 O20           -2.1477    -0.9857    -2.7213 O.2     
  21 O21           -2.3122     0.8366    -4.6651 O.3     
  22 C22           -2.3154     1.9665    -5.5399 C.3     
  23 C23           -2.8247     1.5424    -6.9189 C.3     
  24 O24           -4.1917     1.1384    -6.8183 O.3     
  25 C25            0.0188     2.4341     1.5897 C.2     
  26 H26            0.6693     2.7423     3.5571 H       
  27 H27           -0.6953    -1.1142     2.7767 H       
  28 H28           -0.7357     2.5522    -1.2140 H       
  29 H29           -2.5785    -2.0407     0.2969 H       
  30 H30            0.7222    -1.3974    -1.0089 H       
  31 H31            2.2865    -3.1463    -1.7517 H       
  32 H32           -0.5383    -6.1523    -0.6621 H       
  33 H33           -1.5800     2.0240    -3.1246 H       
  34 H34           -2.9681     2.7390    -5.1333 H       
  35 H35           -1.3023     2.3580    -5.6314 H       
  36 H36           -2.7438     2.3815    -7.6100 H       
  37 H37           -2.2258     0.7095    -7.2871 H       
  38 H38           -4.5811     0.8558    -7.6571 H       
  39 H39            0.2352     3.4493     1.2912 H       
@<TRIPOS>BOND
   1    1    2 1
   2    1   25 1
   3    1    8 1
   4    2    6 2
   5    2    5 1
   6    3    4 1
   7    3   25 2
   8    3   26 1
   9    4    5 2
  10    5   27 1
  11    6    7 1
  12    6    9 1
  13    7    8 2
  14    7   18 1
  15    8   28 1
  16    9   10 1
  17    9   29 1
  18   10   11 ar
  19   10   12 ar
  20   11   16 1
  21   11   15 ar
  22   12   13 ar
  23   12   30 1
  24   13   14 ar
  25   13   31 1
  26   14   15 ar
  27   14   17 1
  28   15   32 1
  29   18   19 am
  30   18   20 2
  31   19   21 1
  32   19   33 1
  33   21   22 1
  34   22   23 1
  35   22   34 1
  36   22   35 1
  37   23   24 1
  38   23   36 1
  39   23   37 1
  40   24   38 1
  41   25   39 1

#	End of record

