#	Name: ASD01918142
#	Creating user name:	WinNT
#	Creation time:	15. 06. 2019 20:10

#	Modifying user name:	WinNT
#	Modification time:	15. 06. 2019 20:10

#	Program:	/corina/corina34_cracker 3.40 0067  02.08.2006

@<TRIPOS>MOLECULE
ASD01918142
  37   40    0    0    0
SMALL
NO_CHARGES


@<TRIPOS>ATOM
   1 N1             1.7386     4.4276     2.1267 N.ar    
   2 C2             2.5786     4.5663     3.1347 C.ar    
   3 C3             3.7869     3.8923     3.1502 C.ar    
   4 C4             4.1128     3.0604     2.0875 C.ar    
   5 C5             3.2048     2.9371     1.0426 C.ar    
   6 C6             2.0106     3.6470     1.0982 C.ar    
   7 O7             3.4808     2.1345    -0.0193 O.3     
   8 C8             4.7096     1.5545    -0.0790 C.2     
   9 N9             6.0254    -0.4165    -0.0184 N.pl3   
  10 C10            4.8195     0.2064     0.0348 C.2     
  11 C11            5.8429     2.3559    -0.2626 C.2     
  12 C12            7.0957     1.7556    -0.3226 C.2     
  13 C13            7.1751     0.3010    -0.1901 C.2     
  14 C14            8.3115     2.5636    -0.5152 C.2     
  15 N15            9.5173     1.9640    -0.5708 N.am    
  16 O16            8.2277     3.7722    -0.6240 O.2     
  17 N17            6.4162    -1.7606     0.0701 N.2     
  18 C18            7.7231    -1.7899    -0.0404 C.2     
  19 N19            8.1837    -0.5561    -0.2025 N.2     
  20 C20           10.6641     2.7261    -0.7524 C.2     
  21 F21            4.6399     4.0423     4.1870 F       
  22 S22           10.6931     4.4274    -0.9188 S.3     
  23 C23           12.4470     4.3922    -1.0810 C.2     
  24 C24           12.8450     3.1214    -0.9963 C.2     
  25 N25           11.8690     2.2515    -0.8148 N.2     
  26 C26           14.2923     2.7130    -1.0937 C.3     
  27 F27            1.1193     3.5361     0.0890 F       
  28 H28            2.3196     5.2148     3.9586 H       
  29 H29            5.0492     2.5225     2.0730 H       
  30 H30            3.9265    -0.3854     0.1713 H       
  31 H31            5.7451     3.4273    -0.3569 H       
  32 H32            9.5842     1.0002    -0.4840 H       
  33 H33            8.3306    -2.6824    -0.0112 H       
  34 H34           13.0881     5.2495    -1.2244 H       
  35 H35           14.7374     2.7125    -0.0987 H       
  36 H36           14.3597     1.7130    -1.5223 H       
  37 H37           14.8267     3.4180    -1.7305 H       
@<TRIPOS>BOND
   1    1    2 ar
   2    1    6 ar
   3    2    3 ar
   4    2   28 1
   5    3    4 ar
   6    3   21 1
   7    4    5 ar
   8    4   29 1
   9    5    6 ar
  10    5    7 1
  11    6   27 1
  12    7    8 1
  13    8   11 1
  14    8   10 2
  15    9   10 1
  16    9   17 1
  17    9   13 1
  18   10   30 1
  19   11   12 2
  20   11   31 1
  21   12   13 1
  22   12   14 1
  23   13   19 2
  24   14   15 am
  25   14   16 2
  26   15   20 1
  27   15   32 1
  28   17   18 2
  29   18   19 1
  30   18   33 1
  31   20   22 1
  32   20   25 2
  33   22   23 1
  34   23   24 2
  35   23   34 1
  36   24   25 1
  37   24   26 1
  38   26   35 1
  39   26   36 1
  40   26   37 1

#	End of record

