#	Name: ASD08170723
#	Creating user name:	WinNT
#	Creation time:	15. 06. 2019 21:17

#	Modifying user name:	WinNT
#	Modification time:	15. 06. 2019 21:17

#	Program:	/corina/corina34_cracker 3.40 0067  02.08.2006

@<TRIPOS>MOLECULE
ASD08170723
  49   51    0    0    0
SMALL
NO_CHARGES


@<TRIPOS>ATOM
   1 N1            -0.0159     1.3148     0.0224 N.ar    
   2 C2             0.0017    -0.0034     0.0124 C.ar    
   3 C3            -1.2931    -0.7743     0.0243 C.3     
   4 C4            -2.1384    -0.3331     1.2208 C.3     
   5 C5            -3.4530    -1.1158     1.2329 C.3     
   6 C6            -4.2983    -0.6746     2.4294 C.3     
   7 C7            -5.5932    -1.4455     2.4412 C.2     
   8 C8             1.2126    -0.6810    -0.0095 C.ar    
   9 C9             2.3785     0.0686    -0.0202 C.ar    
  10 C10            2.2614     1.4576    -0.0083 C.ar    
  11 N11            1.0600     2.0146     0.0126 N.ar    
  12 N12            3.4039     2.2569    -0.0179 N.am    
  13 N13           -5.8013    -2.5749     3.0357 N.2     
  14 N14           -6.9497    -3.0879     2.9456 N.2     
  15 C15           -7.8474    -2.4417     2.2579 C.2     
  16 S16           -7.0966    -0.9635     1.6526 S.3     
  17 N17           -9.1587    -2.8404     2.0447 N.pl3   
  18 C18            3.2884     3.5964    -0.1113 C.2     
  19 O19            2.1986     4.1007    -0.2811 O.2     
  20 C20            4.5135     4.4676    -0.0047 C.3     
  21 C21            4.1144     5.9144    -0.1409 C.ar    
  22 C22            3.7788     6.6474     0.9817 C.ar    
  23 C23            3.4127     7.9747     0.8568 C.ar    
  24 C24            3.3826     8.5688    -0.3909 C.ar    
  25 C25            3.7191     7.8358    -1.5138 C.ar    
  26 C26            4.0894     6.5101    -1.3884 C.ar    
  27 C27            3.0459     8.7736     2.0808 C.3     
  28 F28            4.1930     9.3820     2.6016 F       
  29 F29            2.1133     9.7569     1.7336 F       
  30 F30            2.4908     7.9236     3.0434 F       
  31 H31           -1.8401    -0.5802    -0.8983 H       
  32 H32           -1.0805    -1.8405     0.1031 H       
  33 H33           -1.5915    -0.5273     2.1434 H       
  34 H34           -2.3511     0.7330     1.1420 H       
  35 H35           -4.0000    -0.9216     0.3102 H       
  36 H36           -3.2404    -2.1820     1.3117 H       
  37 H37           -3.7514    -0.8687     3.3520 H       
  38 H38           -4.5110     0.3916     2.3506 H       
  39 H39            1.2455    -1.7605    -0.0176 H       
  40 H40            3.3473    -0.4085    -0.0369 H       
  41 H41            4.2818     1.8488     0.0427 H       
  42 H42           -9.4806    -3.6724     2.4255 H       
  43 H43           -9.7538    -2.2872     1.5149 H       
  44 H44            4.9874     4.3111     0.9643 H       
  45 H45            5.2142     4.2077    -0.7981 H       
  46 H46            3.8023     6.1832     1.9566 H       
  47 H47            3.0959     9.6054    -0.4886 H       
  48 H48            3.6953     8.2999    -2.4887 H       
  49 H49            4.3523     5.9375    -2.2656 H       
@<TRIPOS>BOND
   1    1    2 ar
   2    1   11 ar
   3    2    3 1
   4    2    8 ar
   5    3    4 1
   6    3   31 1
   7    3   32 1
   8    4    5 1
   9    4   33 1
  10    4   34 1
  11    5    6 1
  12    5   35 1
  13    5   36 1
  14    6    7 1
  15    6   37 1
  16    6   38 1
  17    7   13 2
  18    7   16 1
  19    8    9 ar
  20    8   39 1
  21    9   10 ar
  22    9   40 1
  23   10   11 ar
  24   10   12 1
  25   12   18 am
  26   12   41 1
  27   13   14 1
  28   14   15 2
  29   15   16 1
  30   15   17 1
  31   17   42 1
  32   17   43 1
  33   18   19 2
  34   18   20 1
  35   20   21 1
  36   20   44 1
  37   20   45 1
  38   21   22 ar
  39   21   26 ar
  40   22   23 ar
  41   22   46 1
  42   23   24 ar
  43   23   27 1
  44   24   25 ar
  45   24   47 1
  46   25   26 ar
  47   25   48 1
  48   26   49 1
  49   27   28 1
  50   27   29 1
  51   27   30 1

#	End of record

