#	Name: ASD00310364
#	Creating user name:	WinNT
#	Creation time:	15. 06. 2019 18:34

#	Modifying user name:	WinNT
#	Modification time:	15. 06. 2019 18:34

#	Program:	/corina/corina34_cracker 3.40 0067  02.08.2006

@<TRIPOS>MOLECULE
ASD00310364
  41   44    0    0    0
SMALL
NO_CHARGES


@<TRIPOS>ATOM
   1 N1            -0.0153     1.2794     0.0091 N.pl3   
   2 N2             0.0021    -0.0041     0.0020 N.2     
   3 C3             1.2293    -0.4800    -0.0122 C.2     
   4 C4             2.1244     0.6858    -0.0145 C.ar    
   5 C5             3.5014     0.8764    -0.0270 C.ar    
   6 C6             4.0089     2.1688    -0.0253 C.ar    
   7 C7             3.1375     3.2656    -0.0107 C.ar    
   8 C8             1.7847     3.0822     0.0021 C.ar    
   9 C9             1.2550     1.7947    -0.0003 C.ar    
  10 C10            1.6262    -1.8976    -0.0232 C.2     
  11 O11            2.8035    -2.1990    -0.0357 O.2     
  12 O12            0.6838    -2.8614    -0.0195 O.3     
  13 C13            5.4759     2.3884    -0.0386 C.ar    
  14 C14            6.0423     3.2636    -0.9640 C.ar    
  15 C15            7.4059     3.4663    -0.9746 C.ar    
  16 C16            8.2160     2.7982    -0.0636 C.ar    
  17 C17            7.6533     1.9247     0.8598 C.ar    
  18 C18            6.2894     1.7242     0.8782 C.ar    
  19 O19           12.0632     3.8091     0.9988 O.3     
  20 C20           11.7725     2.4142     0.8759 C.3     
  21 C21           10.2585     2.2042     0.9641 C.3     
  22 N22            9.5966     3.0045    -0.0764 N.3     
  23 C23            9.9177     4.4306     0.0801 C.3     
  24 C24           11.4350     4.6182     0.0008 C.3     
  25 Cl25           3.7852     4.8763    -0.0081 Cl      
  26 H26           -0.8235     1.8157     0.0159 H       
  27 H27            4.1695     0.0279    -0.0376 H       
  28 H28            1.1246     3.9369     0.0141 H       
  29 H29            0.9929    -3.7776    -0.0270 H       
  30 H30            5.4134     3.7823    -1.6724 H       
  31 H31            7.8452     4.1442    -1.6915 H       
  32 H32            8.2845     1.4061     1.5662 H       
  33 H33            5.8521     1.0494     1.5991 H       
  34 H34           12.1350     2.0502    -0.0854 H       
  35 H35           12.2632     1.8678     1.6813 H       
  36 H36           10.0280     1.1496     0.8138 H       
  37 H37            9.9040     2.5187     1.9457 H       
  38 H38            9.4383     5.0011    -0.7154 H       
  39 H39            9.5577     4.7806     1.0476 H       
  40 H40           11.6817     5.6659     0.1733 H       
  41 H41           11.7878     4.3183    -0.9860 H       
@<TRIPOS>BOND
   1    1    2 1
   2    1    9 1
   3    1   26 1
   4    2    3 2
   5    3    4 1
   6    3   10 1
   7    4    5 ar
   8    4    9 ar
   9    5    6 ar
  10    5   27 1
  11    6    7 ar
  12    6   13 1
  13    7    8 ar
  14    7   25 1
  15    8    9 ar
  16    8   28 1
  17   10   11 2
  18   10   12 1
  19   12   29 1
  20   13   14 ar
  21   13   18 ar
  22   14   15 ar
  23   14   30 1
  24   15   16 ar
  25   15   31 1
  26   16   17 ar
  27   16   22 1
  28   17   18 ar
  29   17   32 1
  30   18   33 1
  31   19   20 1
  32   19   24 1
  33   20   21 1
  34   20   34 1
  35   20   35 1
  36   21   22 1
  37   21   36 1
  38   21   37 1
  39   22   23 1
  40   23   24 1
  41   23   38 1
  42   23   39 1
  43   24   40 1
  44   24   41 1

#	End of record

