#	Name: ASD01350017
#	Creating user name:	WinNT
#	Creation time:	15. 06. 2019 19:16

#	Modifying user name:	WinNT
#	Modification time:	15. 06. 2019 19:16

#	Program:	/corina/corina34_cracker 3.40 0067  02.08.2006

@<TRIPOS>MOLECULE
ASD01350017
  54   57    0    0    0
SMALL
NO_CHARGES


@<TRIPOS>ATOM
   1 C1            -0.0187     1.5258     0.0104 C.3     
   2 C2             0.0021    -0.0041     0.0020 C.3     
   3 C3            -1.4266    -0.5342     0.1385 C.3     
   4 N4            -1.4067    -2.0031     0.1305 N.3     
   5 C5            -2.7644    -2.5487     0.2600 C.3     
   6 C6            -3.4211    -2.6154    -1.1203 C.3     
   7 C7            -2.6941    -3.9545     0.8598 C.3     
   8 C8            -2.1607    -3.8741     2.2670 C.ar    
   9 C9            -3.0321    -3.7157     3.3284 C.ar    
  10 C10           -2.5428    -3.6419     4.6192 C.ar    
  11 C11           -1.1823    -3.7271     4.8486 C.ar    
  12 C12           -0.3111    -3.8865     3.7873 C.ar    
  13 C13           -0.8006    -3.9646     2.4969 C.ar    
  14 C14            1.3918     2.0402    -0.0003 C.ar    
  15 C15            2.2843     1.6776    -1.0048 C.ar    
  16 C16            1.8962     0.7654    -2.0830 C.2     
  17 C17            0.7461     0.7530    -2.7184 C.2     
  18 C18           -0.3880     1.6491    -2.4809 C.ar    
  19 C19           -0.7685     2.0174    -1.1937 C.ar    
  20 C20           -1.1053     2.1429    -3.5801 C.ar    
  21 C21           -2.1807     2.9805    -3.3838 C.ar    
  22 C22           -2.5570     3.3365    -2.1004 C.ar    
  23 C23           -1.8535     2.8563    -1.0118 C.ar    
  24 C24            1.8034     2.8903     1.0107 C.ar    
  25 C25            3.0931     3.3871     1.0253 C.ar    
  26 C26            3.9841     3.0384     0.0253 C.ar    
  27 C27            3.5895     2.1903    -0.9855 C.ar    
  28 H28           -0.5213     1.8735     0.9130 H       
  29 H29            0.4324    -0.3564    -0.9354 H       
  30 H30            0.6044    -0.3639     0.8362 H       
  31 H31           -1.8569    -0.1819     1.0760 H       
  32 H32           -2.0289    -0.1745    -0.6956 H       
  33 H33           -0.9537    -2.3540    -0.7000 H       
  34 H34           -3.3542    -1.9045     0.9122 H       
  35 H35           -4.4286    -3.0203    -1.0241 H       
  36 H36           -3.4713    -1.6139    -1.5476 H       
  37 H37           -2.8314    -3.2596    -1.7724 H       
  38 H38           -3.6915    -4.3939     0.8738 H       
  39 H39           -2.0323    -4.5747     0.2553 H       
  40 H40           -4.0950    -3.6491     3.1492 H       
  41 H41           -3.2235    -3.5174     5.4484 H       
  42 H42           -0.8000    -3.6687     5.8570 H       
  43 H43            0.7519    -3.9527     3.9665 H       
  44 H44           -0.1199    -4.0891     1.6677 H       
  45 H45            2.6275     0.0307    -2.3859 H       
  46 H46            0.6252     0.0093    -3.4922 H       
  47 H47           -0.8136     1.8661    -4.5825 H       
  48 H48           -2.7307     3.3603    -4.2322 H       
  49 H49           -3.4024     3.9913    -1.9490 H       
  50 H50           -2.1526     3.1380    -0.0130 H       
  51 H51            1.1128     3.1672     1.7934 H       
  52 H52            3.4062     4.0493     1.8189 H       
  53 H53            4.9900     3.4313     0.0378 H       
  54 H54            4.2862     1.9200    -1.7652 H       
@<TRIPOS>BOND
   1    1    2 1
   2    1   14 1
   3    1   19 1
   4    1   28 1
   5    2    3 1
   6    2   29 1
   7    2   30 1
   8    3    4 1
   9    3   31 1
  10    3   32 1
  11    4    5 1
  12    4   33 1
  13    5    6 1
  14    5    7 1
  15    5   34 1
  16    6   35 1
  17    6   36 1
  18    6   37 1
  19    7    8 1
  20    7   38 1
  21    7   39 1
  22    8    9 ar
  23    8   13 ar
  24    9   10 ar
  25    9   40 1
  26   10   11 ar
  27   10   41 1
  28   11   12 ar
  29   11   42 1
  30   12   13 ar
  31   12   43 1
  32   13   44 1
  33   14   15 ar
  34   14   24 ar
  35   15   16 1
  36   15   27 ar
  37   16   17 2
  38   16   45 1
  39   17   18 1
  40   17   46 1
  41   18   19 ar
  42   18   20 ar
  43   19   23 ar
  44   20   21 ar
  45   20   47 1
  46   21   22 ar
  47   21   48 1
  48   22   23 ar
  49   22   49 1
  50   23   50 1
  51   24   25 ar
  52   24   51 1
  53   25   26 ar
  54   25   52 1
  55   26   27 ar
  56   26   53 1
  57   27   54 1

#	End of record

