#	Name: ASD01230051
#	Creating user name:	WinNT
#	Creation time:	15. 06. 2019 19:11

#	Modifying user name:	WinNT
#	Modification time:	15. 06. 2019 19:11

#	Program:	/corina/corina34_cracker 3.40 0067  02.08.2006

@<TRIPOS>MOLECULE
ASD01230051
  23   24    0    0    0
SMALL
NO_CHARGES


@<TRIPOS>ATOM
   1 C1            -0.7563     0.9425     0.4792 C.2     
   2 C2            -0.3979    -0.3586     0.3276 C.2     
   3 S3             0.4671     2.2352     0.3706 S.o2    
   4 N4             1.8946     1.3671     0.2596 N.am    
   5 C5             1.8098     0.1194    -0.5254 C.3     
   6 N6             0.9017    -0.8274     0.1147 N.3     
   7 O7             0.2763     2.8891    -0.8765 O.2     
   8 O8             0.4807     2.9057     1.6234 O.2     
   9 C9             0.8880    -2.1100    -0.6013 C.3     
  10 C10            0.3281    -1.9018    -2.0099 C.3     
  11 S11           -1.8302    -1.3724     0.4667 S.3     
  12 C12           -2.8489     0.0324     0.7403 C.2     
  13 C13           -2.1100     1.1376     0.7096 C.2     
  14 Cl14          -4.5636    -0.0148     1.0075 Cl      
  15 H15            2.7173     1.6625     0.6801 H       
  16 H16            1.4437     0.3484    -1.5262 H       
  17 H17            2.8014    -0.3271    -0.5993 H       
  18 H18            1.9038    -2.4997    -0.6681 H       
  19 H19            0.2610    -2.8203    -0.0624 H       
  20 H20           -0.6446    -1.4142    -1.9458 H       
  21 H21            1.0113    -1.2756    -2.5836 H       
  22 H22            0.2187    -2.8673    -2.5038 H       
  23 H23           -2.5344     2.1196     0.8575 H       
@<TRIPOS>BOND
   1    1    2 2
   2    1    3 1
   3    1   13 1
   4    2   11 1
   5    2    6 1
   6    3    4 am
   7    3    7 2
   8    3    8 2
   9    4    5 1
  10    4   15 1
  11    5    6 1
  12    5   16 1
  13    5   17 1
  14    6    9 1
  15    9   10 1
  16    9   18 1
  17    9   19 1
  18   10   20 1
  19   10   21 1
  20   10   22 1
  21   11   12 1
  22   12   13 2
  23   12   14 1
  24   13   23 1

#	End of record

