#	Name: ASD01913880
#	Creating user name:	WinNT
#	Creation time:	15. 06. 2019 20:02

#	Modifying user name:	WinNT
#	Modification time:	15. 06. 2019 20:02

#	Program:	/corina/corina34_cracker 3.40 0067  02.08.2006

@<TRIPOS>MOLECULE
ASD01913880
  43   46    0    0    0
SMALL
NO_CHARGES


@<TRIPOS>ATOM
   1 C1            -0.0205     1.4273     0.0517 C.ar    
   2 C2            -0.0001    -0.0044     0.0314 C.1     
   3 C3             0.0167    -1.1781     0.0147 C.1     
   4 C4             0.0371    -2.6098    -0.0056 C.ar    
   5 C5            -1.1376    -3.3354    -0.2545 C.ar    
   6 C6             0.1560    -5.3344    -0.0280 C.ar    
   7 N7             1.2493    -4.6216     0.1979 N.ar    
   8 C8             1.2278    -3.3050     0.2165 C.ar    
   9 C9            -1.0672    -4.7139    -0.2638 C.ar    
  10 C10            1.1538     2.1428     0.3004 C.ar    
  11 C11            1.1265     3.5216     0.3179 C.ar    
  12 C12           -1.2137     2.1159    -0.1828 C.ar    
  13 C13           -0.0599     4.1965     0.0900 C.ar    
  14 C14           -1.2256     3.4948    -0.1622 C.ar    
  15 N15            0.2331    -6.7250    -0.0369 N.am    
  16 C16           -0.8145    -7.5590    -0.0322 C.2     
  17 N17           -0.4774    -8.8549    -0.0430 N.am    
  18 C18            0.9874    -8.9758    -0.0573 C.3     
  19 C19            1.4771    -7.5076    -0.0594 C.3     
  20 C20           -1.4205    -9.9760    -0.0405 C.3     
  21 O21           -1.9677    -7.1743    -0.0186 O.2     
  22 C22            1.4349    -9.5806    -1.4030 C.3     
  23 C23            1.5967    -8.3567    -2.3377 C.3     
  24 C24            2.2000    -7.2913    -1.4039 C.3     
  25 H25            1.3597    -9.5350     0.8010 H       
  26 H26            2.1093    -7.2847     0.8000 H       
  27 H27           -2.0739    -2.8279    -0.4341 H       
  28 H28            2.1397    -2.7578     0.4048 H       
  29 H29           -1.9517    -5.3045    -0.4516 H       
  30 H30            2.0803     1.6174     0.4788 H       
  31 H31            2.0332     4.0759     0.5104 H       
  32 H32           -2.1242     1.5695    -0.3801 H       
  33 H33           -0.0752     5.2763     0.1050 H       
  34 H34           -2.1478     4.0283    -0.3395 H       
  35 H35           -2.4407    -9.5926    -0.0289 H       
  36 H36           -1.2694   -10.5799    -0.9352 H       
  37 H37           -1.2529   -10.5897     0.8446 H       
  38 H38            2.3855   -10.1016    -1.2894 H       
  39 H39            0.6723   -10.2569    -1.7893 H       
  40 H40            2.2813    -8.5827    -3.1552 H       
  41 H41            0.6291    -8.0328    -2.7211 H       
  42 H42            1.9971    -6.2908    -1.7859 H       
  43 H43            3.2729    -7.4469    -1.2912 H       
@<TRIPOS>BOND
   1    1    2 1
   2    1   10 ar
   3    1   12 ar
   4    2    3 3
   5    3    4 1
   6    4    5 ar
   7    4    8 ar
   8    5    9 ar
   9    5   27 1
  10    6    7 ar
  11    6   15 1
  12    6    9 ar
  13    7    8 ar
  14    8   28 1
  15    9   29 1
  16   10   11 ar
  17   10   30 1
  18   11   13 ar
  19   11   31 1
  20   12   14 ar
  21   12   32 1
  22   13   14 ar
  23   13   33 1
  24   14   34 1
  25   15   16 am
  26   15   19 1
  27   16   17 am
  28   16   21 2
  29   17   18 1
  30   17   20 1
  31   18   19 1
  32   18   22 1
  33   18   25 1
  34   19   26 1
  35   19   24 1
  36   20   35 1
  37   20   36 1
  38   20   37 1
  39   22   23 1
  40   22   38 1
  41   22   39 1
  42   23   24 1
  43   23   40 1
  44   23   41 1
  45   24   42 1
  46   24   43 1

#	End of record

