#	Name: ASD08170027
#	Creating user name:	WinNT
#	Creation time:	15. 06. 2019 21:17

#	Modifying user name:	WinNT
#	Modification time:	15. 06. 2019 21:17

#	Program:	/corina/corina34_cracker 3.40 0067  02.08.2006

@<TRIPOS>MOLECULE
ASD08170027
  46   48    0    0    0
SMALL
NO_CHARGES


@<TRIPOS>ATOM
   1 C1            -0.0184     1.5028     0.0103 C.3     
   2 C2             0.0021    -0.0041     0.0020 C.2     
   3 C3            -1.1370    -2.0844     0.0017 C.2     
   4 N4            -0.0714    -2.8270    -0.0120 N.2     
   5 N5            -0.2299    -4.0795    -0.0121 N.2     
   6 C6            -1.4517    -4.5090     0.0016 C.2     
   7 S7            -2.5151    -3.1018     0.0163 S.3     
   8 C8            -1.8867    -5.9519     0.0039 C.3     
   9 C9            -2.0174    -6.4428     1.4471 C.3     
  10 C10           -2.4590    -7.9077     1.4495 C.3     
  11 C11           -2.5897    -8.3986     2.8928 C.3     
  12 C12           -3.0246    -9.8415     2.8951 C.2     
  13 S13           -4.6903   -10.4244     2.9132 S.3     
  14 C14           -4.0748   -12.0786     2.9031 C.2     
  15 N15           -2.7740   -12.0161     2.8883 N.2     
  16 N16           -2.2437   -10.8721     2.8787 N.2     
  17 N17           -4.8387   -13.2363     2.9098 N.pl3   
  18 O18            1.0605    -0.5961    -0.0113 O.2     
  19 N19           -1.1558    -0.6938     0.0094 N.am    
  20 C20            1.3954     2.0244    -0.0004 C.ar    
  21 C21            2.0324     2.2701    -1.2024 C.ar    
  22 C22            3.3293     2.7485    -1.2122 C.ar    
  23 C23            3.9890     2.9817    -0.0200 C.ar    
  24 C24            3.3517     2.7369     1.1820 C.ar    
  25 C25            2.0533     2.2626     1.1918 C.ar    
  26 C26            5.4032     3.5023    -0.0307 C.3     
  27 H27           -0.5455     1.8639    -0.8728 H       
  28 H28           -0.5286     1.8543     0.9071 H       
  29 H29           -2.8495    -6.0420    -0.4991 H       
  30 H30           -1.1454    -6.5557    -0.5195 H       
  31 H31           -1.0546    -6.3528     1.9501 H       
  32 H32           -2.7586    -5.8390     1.9706 H       
  33 H33           -3.4218    -7.9977     0.9466 H       
  34 H34           -1.7177    -8.5115     0.9261 H       
  35 H35           -1.6268    -8.3085     3.3957 H       
  36 H36           -3.3309    -7.7948     3.4162 H       
  37 H37           -5.8069   -13.1785     2.9210 H       
  38 H38           -4.4047   -14.1038     2.9033 H       
  39 H39           -2.0023    -0.2203     0.0200 H       
  40 H40            1.5170     2.0879    -2.1338 H       
  41 H41            3.8272     2.9397    -2.1513 H       
  42 H42            3.8673     2.9187     2.1134 H       
  43 H43            1.5554     2.0713     2.1309 H       
  44 H44            5.3892     4.5922    -0.0255 H       
  45 H45            5.9299     3.1415     0.8527 H       
  46 H46            5.9134     3.1498    -0.9271 H       
@<TRIPOS>BOND
   1    1    2 1
   2    1   20 1
   3    1   27 1
   4    1   28 1
   5    2   18 2
   6    2   19 am
   7    3    4 2
   8    3    7 1
   9    3   19 1
  10    4    5 1
  11    5    6 2
  12    6    7 1
  13    6    8 1
  14    8    9 1
  15    8   29 1
  16    8   30 1
  17    9   10 1
  18    9   31 1
  19    9   32 1
  20   10   11 1
  21   10   33 1
  22   10   34 1
  23   11   12 1
  24   11   35 1
  25   11   36 1
  26   12   13 1
  27   12   16 2
  28   13   14 1
  29   14   15 2
  30   14   17 1
  31   15   16 1
  32   17   37 1
  33   17   38 1
  34   19   39 1
  35   20   21 ar
  36   20   25 ar
  37   21   22 ar
  38   21   40 1
  39   22   23 ar
  40   22   41 1
  41   23   24 ar
  42   23   26 1
  43   24   25 ar
  44   24   42 1
  45   25   43 1
  46   26   44 1
  47   26   45 1
  48   26   46 1

#	End of record

