#	Name: ASD05740124
#	Creating user name:	WinNT
#	Creation time:	15. 06. 2019 21:02

#	Modifying user name:	WinNT
#	Modification time:	15. 06. 2019 21:02

#	Program:	/corina/corina34_cracker 3.40 0067  02.08.2006

@<TRIPOS>MOLECULE
ASD05740124
  53   54    0    0    0
SMALL
NO_CHARGES


@<TRIPOS>ATOM
   1 C1            -0.0167     1.3816     0.0096 C.2     
   2 C2            -3.1859     0.8575     1.3396 C.3     
   3 C3            -2.9417    -0.5997     3.3903 C.2     
   4 C4            -2.3772    -1.6818     4.0490 C.2     
   5 C5            -2.5762    -0.3163     2.0618 C.2     
   6 C6            -1.6645    -1.1145     1.4322 C.2     
   7 C7            -1.1121    -2.2001     2.1245 C.2     
   8 O8            -1.4692    -2.4585     3.3895 O.3     
   9 C9            -1.2577    -0.8312     0.0091 C.3     
  10 C10            0.0021    -0.0041     0.0020 C.2     
  11 C11            1.2171    -0.5503    -0.0125 C.2     
  12 O12           -0.2974    -2.9181     1.5691 O.2     
  13 C13            1.1936     1.9589     0.0012 C.2     
  14 S14            2.4377     0.7158    -0.0174 S.3     
  15 N15            1.4298     3.3349     0.0056 N.am    
  16 S16            2.5790     3.9745     1.0119 S.o2    
  17 O17            2.5218     5.3728     0.7652 O.2     
  18 O18            2.2606     3.4425     2.2905 O.2     
  19 C19           -2.8407    -1.8264     5.3508 C.2     
  20 C20           -3.7387    -0.9187     5.7542 C.2     
  21 S21           -4.0750     0.2193     4.4602 S.3     
  22 O22           -4.3099    -0.8864     6.9827 O.3     
  23 C23           -5.2501     0.1601     7.2337 C.3     
  24 C24            4.1443     3.2851     0.4074 C.3     
  25 C25            5.2800     3.8000     1.2536 C.2     
  26 O26            5.0556     4.5575     2.1738 O.2     
  27 N27            6.5451     3.4187     0.9878 N.am    
  28 C28            7.6492     3.9193     1.8103 C.3     
  29 H29           -0.9340     1.9517     0.0172 H       
  30 H30           -3.8849     1.3683     2.0018 H       
  31 H31           -2.3981     1.5487     1.0400 H       
  32 H32           -3.7155     0.5045     0.4548 H       
  33 H33           -1.0777    -1.7718    -0.5114 H       
  34 H34           -2.0545    -0.2839    -0.4945 H       
  35 H35            1.4217    -1.6107    -0.0196 H       
  36 H36            0.9208     3.9163    -0.5807 H       
  37 H37           -2.4985    -2.6214     5.9968 H       
  38 H38           -4.7594     1.1259     7.1133 H       
  39 H39           -6.0772     0.0823     6.5281 H       
  40 H40           -5.6307     0.0703     8.2511 H       
  41 H41            4.1098     2.1973     0.4685 H       
  42 H42            4.2978     3.5861    -0.6289 H       
  43 H43            6.7245     2.8129     0.2518 H       
  44 H44            7.4957     3.6183     2.8466 H       
  45 H45            8.5897     3.5050     1.4471 H       
  46 H46            7.6836     5.0070     1.7492 H       
  47 C47           14.1169    13.0421    15.1194 C.3     
  48 N48           14.1367    11.5773    15.1113 N.2     
  49 C49           14.6775    10.9647    14.1653 C.1     
  50 O50           15.2000    10.3728    13.2511 O.2     
  51 H51           15.1395    13.4194    15.1117 H       
  52 H52           13.5897    13.4032    14.2363 H       
  53 H53           13.6067    13.3936    16.0162 H       
@<TRIPOS>BOND
   1    1   10 1
   2    1   13 2
   3    1   29 1
   4    2    5 1
   5    2   30 1
   6    2   31 1
   7    2   32 1
   8    3    4 2
   9    3    5 1
  10    3   21 1
  11    4   19 1
  12    4    8 1
  13    5    6 2
  14    6    7 1
  15    6    9 1
  16    7    8 1
  17    7   12 2
  18    9   10 1
  19    9   33 1
  20    9   34 1
  21   10   11 2
  22   11   14 1
  23   11   35 1
  24   13   14 1
  25   13   15 1
  26   15   16 am
  27   15   36 1
  28   16   17 2
  29   16   18 2
  30   16   24 1
  31   19   20 2
  32   19   37 1
  33   20   21 1
  34   20   22 1
  35   22   23 1
  36   23   38 1
  37   23   39 1
  38   23   40 1
  39   24   25 1
  40   24   41 1
  41   24   42 1
  42   25   26 2
  43   25   27 am
  44   27   28 1
  45   27   43 1
  46   28   44 1
  47   28   45 1
  48   28   46 1
  49   47   48 1
  50   47   51 1
  51   47   52 1
  52   47   53 1
  53   48   49 2
  54   49   50 2

#	End of record

