#	Name: ASD04880699
#	Creating user name:	WinNT
#	Creation time:	15. 06. 2019 20:53

#	Modifying user name:	WinNT
#	Modification time:	15. 06. 2019 20:53

#	Program:	/corina/corina34_cracker 3.40 0067  02.08.2006

@<TRIPOS>MOLECULE
ASD04880699
  51   53    0    0    0
SMALL
NO_CHARGES


@<TRIPOS>ATOM
   1 C1             0.9156     0.8885     1.4506 C.ar    
   2 C2             1.1741    -0.4246     1.7827 C.ar    
   3 C3             2.4829    -0.8751     1.8767 C.ar    
   4 C4             3.5424    -0.0032     1.6355 C.ar    
   5 C5             3.2912     1.3144     1.3016 C.ar    
   6 C6             1.9732     1.7685     1.2073 C.ar    
   7 O7             2.7322    -2.1704     2.2054 O.3     
   8 C8             1.5996    -3.0096     2.4399 C.3     
   9 N9             2.5946     4.0662     0.6076 N.2     
  10 N10            2.0763     5.3210     0.2940 N.am    
  11 C11            0.6069     5.2529     0.3361 C.3     
  12 C12            0.3237     3.7863     0.7175 C.3     
  13 C13            1.6991     3.1729     0.8520 C.2     
  14 C14            2.8021     6.4180     0.0005 C.2     
  15 O15            2.2437     7.4635    -0.2582 O.2     
  16 O16            4.8241    -0.4484     1.7290 O.3     
  17 C17            5.8609     0.4999     1.4685 C.3     
  18 C18            4.3074     6.3460    -0.0063 C.3     
  19 C19            4.8768     7.7063     0.3040 C.ar    
  20 C20            4.1673     8.5879     1.0979 C.ar    
  21 C21            4.6896     9.8358     1.3825 C.ar    
  22 C22            5.9216    10.2018     0.8736 C.ar    
  23 C23            6.6316     9.3199     0.0805 C.ar    
  24 C24            6.1112     8.0704    -0.2005 C.ar    
  25 C25            4.7901     5.8937    -1.3859 C.3     
  26 O26            4.7440     5.4102     0.9816 O.3     
  27 F27            4.5162     6.8925    -2.3264 F       
  28 F28            6.1685     5.6583    -1.3436 F       
  29 F29            4.1270     4.7166    -1.7491 F       
  30 C30            4.3437     5.7412     2.3128 C.3     
  31 H31           -0.1043     1.2355     1.3741 H       
  32 H32            0.3558    -1.1039     1.9706 H       
  33 H33            4.1117     1.9913     1.1147 H       
  34 H34            1.9381    -4.0145     2.6924 H       
  35 H35            1.0128    -2.6058     3.2649 H       
  36 H36            0.9841    -3.0488     1.5412 H       
  37 H37            0.2132     5.9294     1.0947 H       
  38 H38            0.1840     5.4835    -0.6417 H       
  39 H39           -0.2124     3.7344     1.6651 H       
  40 H40           -0.2415     3.2887    -0.0705 H       
  41 H41            6.8315     0.0159     1.5770 H       
  42 H42            5.7569     0.8821     0.4530 H       
  43 H43            5.7850     1.3249     2.1768 H       
  44 H44            3.2047     8.3019     1.4955 H       
  45 H45            4.1349    10.5248     2.0022 H       
  46 H46            6.3294    11.1770     1.0954 H       
  47 H47            7.5940     9.6060    -0.3173 H       
  48 H48            6.6675     7.3800    -0.8171 H       
  49 H49            4.7137     4.9828     3.0027 H       
  50 H50            4.7563     6.7126     2.5854 H       
  51 H51            3.2557     5.7808     2.3659 H       
@<TRIPOS>BOND
   1    1    2 ar
   2    1    6 ar
   3    1   31 1
   4    2    3 ar
   5    2   32 1
   6    3    4 ar
   7    3    7 1
   8    4    5 ar
   9    4   16 1
  10    5    6 ar
  11    5   33 1
  12    6   13 1
  13    7    8 1
  14    8   34 1
  15    8   35 1
  16    8   36 1
  17    9   10 1
  18    9   13 2
  19   10   11 1
  20   10   14 am
  21   11   12 1
  22   11   37 1
  23   11   38 1
  24   12   13 1
  25   12   39 1
  26   12   40 1
  27   14   15 2
  28   14   18 1
  29   16   17 1
  30   17   41 1
  31   17   42 1
  32   17   43 1
  33   18   19 1
  34   18   25 1
  35   18   26 1
  36   19   20 ar
  37   19   24 ar
  38   20   21 ar
  39   20   44 1
  40   21   22 ar
  41   21   45 1
  42   22   23 ar
  43   22   46 1
  44   23   24 ar
  45   23   47 1
  46   24   48 1
  47   25   27 1
  48   25   28 1
  49   25   29 1
  50   26   30 1
  51   30   49 1
  52   30   50 1
  53   30   51 1

#	End of record

