#	Name: ASD04570051
#	Creating user name:	WinNT
#	Creation time:	15. 06. 2019 20:49

#	Modifying user name:	WinNT
#	Modification time:	15. 06. 2019 20:49

#	Program:	/corina/corina34_cracker 3.40 0067  02.08.2006

@<TRIPOS>MOLECULE
ASD04570051
 330  330    0    0    0
SMALL
NO_CHARGES


@<TRIPOS>ATOM
   1 C1            -0.0187     1.5258     0.0104 C.3     
   2 C2             0.0021    -0.0041     0.0020 C.3     
   3 C3            -1.4333    -0.5336     0.0129 C.3     
   4 C4            -1.4126    -2.0635     0.0045 C.3     
   5 C5            -2.8479    -2.5931     0.0153 C.3     
   6 C6            -2.8272    -4.1229     0.0069 C.3     
   7 C7            -4.2626    -4.6525     0.0178 C.3     
   8 C8            -4.2418    -6.1823     0.0094 C.3     
   9 C9            -5.6772    -6.7119     0.0202 C.3     
  10 C10           -5.6565    -8.2417     0.0118 C.3     
  11 C11           -7.0918    -8.7713     0.0227 C.3     
  12 C12           -7.0711   -10.3012     0.0143 C.3     
  13 C13           -8.5065   -10.8307     0.0251 C.3     
  14 C14           -8.4857   -12.3606     0.0167 C.3     
  15 C15           -9.8995   -12.8822     0.0274 C.2     
  16 N16          -10.1278   -14.2105     0.0224 N.am    
  17 O17          -10.8319   -12.1067     0.0405 O.2     
  18 C18          -11.5022   -14.7176     0.0328 C.3     
  19 C19          -11.4818   -16.2244     0.0246 C.2     
  20 N20          -12.6397   -16.9141     0.0319 N.am    
  21 O21          -10.4234   -16.8164     0.0113 O.2     
  22 C22          -12.6198   -18.3789     0.0239 C.3     
  23 C23          -14.0336   -18.9006     0.0345 C.2     
  24 N24          -14.2619   -20.2288     0.0296 N.am    
  25 O25          -14.9660   -18.1251     0.0476 O.2     
  26 C26          -15.6363   -20.7359     0.0400 C.3     
  27 C27          -15.6677   -22.1146    -0.5676 C.2     
  28 O28          -14.6429   -22.6236    -0.9697 O.2     
  29 N29          -16.8345   -22.7821    -0.6641 N.am    
  30 C30          -16.1445   -20.8022     1.4816 C.3     
  31 C31          -16.2295   -19.4087     2.0489 C.ar    
  32 C32          -17.3963   -18.6790     1.9152 C.ar    
  33 C33          -16.8650   -24.1224    -1.2548 C.3     
  34 C34          -16.9741   -24.0068    -2.7765 C.3     
  35 C35          -18.0543   -24.8792    -0.7220 C.2     
  36 O36          -18.8028   -24.3511     0.0728 O.2     
  37 N37          -18.2862   -26.1430    -1.1288 N.am    
  38 C38          -15.7083   -23.3492    -3.3300 C.3     
  39 C39          -15.8157   -23.2353    -4.8289 C.2     
  40 N40          -14.8101   -22.6835    -5.5365 N.am    
  41 C41          -19.4424   -26.8788    -0.6109 C.3     
  42 C42          -19.0756   -27.5314     0.7234 C.3     
  43 C43          -19.8429   -27.9446    -1.5981 C.2     
  44 O44          -19.2236   -28.0767    -2.6325 O.2     
  45 N45          -20.8894   -28.7511    -1.3316 N.am    
  46 C46          -21.2787   -29.7872    -2.2913 C.3     
  47 C47          -22.0113   -30.9124    -1.5577 C.3     
  48 C48          -22.1895   -29.1903    -3.3330 C.2     
  49 C49          -21.0487   -31.6003    -0.5877 C.3     
  50 C50          -21.7813   -32.7255     0.1458 C.3     
  51 C51          -17.4766   -17.4013     2.4344 C.ar    
  52 C52          -16.3853   -16.8505     3.0903 C.ar    
  53 C53          -15.2157   -17.5846     3.2231 C.ar    
  54 C54          -15.1423   -18.8640     2.7071 C.ar    
  55 O55          -16.4617   -15.5936     3.6015 O.3     
  56 O56          -16.8070   -23.6402    -5.3983 O.2     
  57 C57            1.4167     2.0553    -0.0004 C.3     
  58 H58           -9.3821   -14.8307     0.0120 H       
  59 C59          -18.7896   -26.4443     1.7613 C.3     
  60 C60          -18.4228   -27.0969     3.0956 C.3     
  61 C61          -18.1367   -26.0098     4.1335 C.3     
  62 N62          -17.7846   -26.6364     5.4147 N.3     
  63 C63          -20.8186   -33.4135     1.1158 C.3     
  64 O64          -22.7003   -28.1128    -3.1425 O.2     
  65 C65          -22.4627   -29.9381    -4.6126 C.3     
  66 N66          -21.5220   -34.4938     1.8201 N.3     
  67 H67           -0.5459     1.8868    -0.8726 H       
  68 H68           -0.5289     1.8773     0.9072 H       
  69 H69            0.5123    -0.3556    -0.8948 H       
  70 H70            0.5293    -0.3651     0.8851 H       
  71 H71           -1.9435    -0.1821     0.9097 H       
  72 H72           -1.9605    -0.1726    -0.8702 H       
  73 H73           -0.9024    -2.4150    -0.8923 H       
  74 H74           -0.8854    -2.4246     0.8875 H       
  75 H75           -3.3581    -2.2415     0.9121 H       
  76 H76           -3.3751    -2.2320    -0.8677 H       
  77 H77           -2.3170    -4.4744    -0.8899 H       
  78 H78           -2.3000    -4.4840     0.8900 H       
  79 H79           -4.7728    -4.3010     0.9146 H       
  80 H80           -4.7898    -4.2914    -0.8653 H       
  81 H81           -3.7316    -6.5338    -0.8874 H       
  82 H82           -3.7146    -6.5434     0.8924 H       
  83 H83           -6.1874    -6.3604     0.9170 H       
  84 H84           -6.2044    -6.3508    -0.8628 H       
  85 H85           -5.1463    -8.5933    -0.8850 H       
  86 H86           -5.1293    -8.6028     0.8949 H       
  87 H87           -7.6020    -8.4198     0.9195 H       
  88 H88           -7.6190    -8.4102    -0.8604 H       
  89 H89           -6.5609   -10.6527    -0.8825 H       
  90 H90           -6.5439   -10.6622     0.8973 H       
  91 H91           -9.0167   -10.4792     0.9219 H       
  92 H92           -9.0337   -10.4697    -0.8579 H       
  93 H93           -7.9755   -12.7121    -0.8801 H       
  94 H94           -7.9586   -12.7217     0.8998 H       
  95 H95          -12.0124   -14.3660     0.9296 H       
  96 H96          -12.0294   -14.3565    -0.8502 H       
  97 H97          -13.4862   -16.4406     0.0425 H       
  98 H98          -12.1096   -18.7305    -0.8729 H       
  99 H99          -12.0926   -18.7400     0.9069 H       
 100 H100         -13.5162   -20.8491     0.0191 H       
 101 H101         -16.2741   -20.0688    -0.5398 H       
 102 H102         -17.6542   -22.3751    -0.3425 H       
 103 H103         -17.1328   -21.2619     1.4977 H       
 104 H104         -15.4570   -21.3977     2.0822 H       
 105 H105         -18.2455   -19.1081     1.4042 H       
 106 H106         -15.9498   -24.6547    -0.9955 H       
 107 H107         -17.0861   -25.0009    -3.2094 H       
 108 H108         -17.8415   -23.3988    -3.0335 H       
 109 H109         -17.6876   -26.5655    -1.7645 H       
 110 H110         -15.5963   -22.3552    -2.8972 H       
 111 H111         -14.8409   -23.9573    -3.0731 H       
 112 H112         -14.0173   -22.3597    -5.0811 H       
 113 H113         -14.8793   -22.6102    -6.5013 H       
 114 H114         -20.2742   -26.1903    -0.4621 H       
 115 H115         -19.9049   -28.1507     1.0651 H       
 116 H116         -18.1887   -28.1515     0.5929 H       
 117 H117         -21.3847   -28.6454    -0.5043 H       
 118 H118         -20.3877   -30.1883    -2.7744 H       
 119 H119         -22.8519   -30.4969    -1.0019 H       
 120 H120         -22.3786   -31.6395    -2.2820 H       
 121 H121         -20.2081   -32.0159    -1.1435 H       
 122 H122         -20.6814   -30.8732     0.1365 H       
 123 H123         -22.6218   -32.3100     0.7016 H       
 124 H124         -22.1485   -33.4526    -0.5785 H       
 125 H125         -18.3881   -16.8317     2.3294 H       
 126 H126         -14.3647   -17.1580     3.7332 H       
 127 H127         -14.2321   -19.4361     2.8105 H       
 128 H128         -16.7777   -15.5590     4.5147 H       
 129 H129           1.9439     1.6943     0.8826 H       
 130 H130           1.9269     1.7038    -0.8972 H       
 131 H131           1.4019     3.1452     0.0056 H       
 132 H132         -17.9602   -25.8249     1.4196 H       
 133 H133         -19.6764   -25.8241     1.8918 H       
 134 H134         -19.2521   -27.7162     3.4373 H       
 135 H135         -17.5359   -27.7170     2.9652 H       
 136 H136         -17.3074   -25.3904     3.7919 H       
 137 H137         -19.0236   -25.3896     4.2640 H       
 138 H138         -17.0042   -27.2668     5.3064 H       
 139 H139         -17.5909   -25.9386     6.1173 H       
 140 H140         -19.9781   -33.8290     0.5600 H       
 141 H141         -20.4514   -32.6864     1.8401 H       
 142 H142         -21.9190   -30.8828    -4.6046 H       
 143 H143         -23.5315   -30.1347    -4.6974 H       
 144 H144         -22.1353   -29.3376    -5.4613 H       
 145 H145         -21.9276   -35.1472     1.1669 H       
 146 H146         -20.9071   -34.9640     2.4672 H       
 147 C147          12.1104    42.1446    24.8649 C.3     
 148 C148          12.5515    40.8538    25.5054 C.2     
 149 N149          12.7408    39.7556    24.7474 N.am    
 150 C150          13.1697    38.5008    25.3701 C.3     
 151 C151          13.8821    37.6513    24.3494 C.2     
 152 N152          14.3680    36.4436    24.6987 N.am    
 153 C153          15.0605    35.6178    23.7064 C.3     
 154 C154          14.9605    34.1672    24.1023 C.2     
 155 N155          15.5284    33.2179    23.3324 N.am    
 156 O156          14.3690    33.8540    25.1137 O.2     
 157 C157          15.4312    31.8077    23.7172 C.3     
 158 C158          15.5642    30.9420    22.4909 C.2     
 159 C159          16.5509    31.4699    24.7038 C.3     
 160 N160          15.5051    29.6002    22.6035 N.am    
 161 O161          15.7244    31.4527    21.4026 O.2     
 162 C162          15.6344    28.7586    21.4113 C.3     
 163 C163          14.9529    27.4365    21.6535 C.2     
 164 N164          14.6852    26.6167    20.6177 N.am    
 165 O165          14.6453    27.1102    22.7803 O.2     
 166 C166          14.1021    25.2950    20.8614 C.3     
 167 C167          14.8893    24.2524    20.1101 C.2     
 168 O168          15.8434    24.5811    19.4373 O.2     
 169 N169          14.5330    22.9548    20.1858 N.am    
 170 C170          15.2982    21.9413    19.4554 C.3     
 171 C171          16.5018    21.5080    20.2947 C.3     
 172 C172          14.4194    20.7476    19.1836 C.2     
 173 O173          13.2674    20.7438    19.5627 O.2     
 174 N174          14.9137    19.6842    18.5193 N.am    
 175 C175          14.0595    18.5238    18.2551 C.3     
 176 C176          13.2547    18.7635    16.9761 C.3     
 177 C177          14.9175    17.2964    18.0861 C.2     
 178 O178          16.1238    17.3826    18.1774 O.2     
 179 N179          14.3443    16.1031    17.8336 N.am    
 180 C180          15.1784    14.9099    17.6693 C.3     
 181 C181          15.6603    14.8202    16.2199 C.3     
 182 C182          14.3718    13.6827    18.0074 C.2     
 183 O183          13.2142    13.7938    18.3517 O.2     
 184 N184          14.9368    12.4617    17.9272 N.am    
 185 C185          16.5813    16.0031    15.9145 C.3     
 186 C186          17.0632    15.9133    14.4652 C.3     
 187 N187          17.9451    17.0460    14.1728 N.pl3   
 188 C188          18.5033    17.1779    12.9233 C.2     
 189 C189          17.1161    28.5215    21.1127 C.3     
 190 C190          17.2551    27.7664    19.7893 C.3     
 191 O191          17.7898    29.7781    21.0171 O.3     
 192 C192          12.6496    25.2819    20.3808 C.3     
 193 C193          11.8378    26.2443    21.2090 C.2     
 194 O194          10.5189    26.3689    20.9925 O.3     
 195 O195          12.3740    26.9037    22.0678 O.2     
 196 C196          17.4569    22.6910    20.4655 C.3     
 197 C197          18.6605    22.2577    21.3048 C.3     
 198 C198          19.6156    23.4408    21.4757 C.3     
 199 N199          20.7712    23.0248    22.2815 N.3     
 200 C200          12.3073    19.9162    17.1874 C.ar    
 201 C201          12.7138    21.2057    16.8981 C.ar    
 202 C202          11.0310    19.6819    17.6648 C.ar    
 203 C203          10.1604    20.7368    17.8589 C.ar    
 204 C204          10.5677    22.0321    17.5744 C.ar    
 205 C205          11.8472    22.2641    17.0909 C.ar    
 206 N206          19.3310    18.2409    12.6488 N.pl3   
 207 N207          18.2479    16.2953    11.9989 N.2     
 208 C208          16.5330    36.0279    23.6398 C.3     
 209 O209          17.1667    35.7325    24.8861 O.3     
 210 O210          14.0182    38.0543    23.2136 O.2     
 211 C211          11.9459    37.7478    25.8956 C.3     
 212 C212          11.2941    38.5555    27.0198 C.3     
 213 C213          10.0702    37.8025    27.5452 C.3     
 214 N214           9.4461    38.5759    28.6216 N.pl3   
 215 C215           8.3224    38.0950    29.2512 C.2     
 216 N216           7.7367    38.8208    30.2613 N.pl3   
 217 N217           7.8124    36.9511    28.8903 N.2     
 218 O218          12.7362    40.8033    26.7030 O.2     
 219 C219          14.1527    11.2687    18.2558 C.3     
 220 C220          14.1970    11.0326    19.7436 C.2     
 221 C221          14.7394    10.0567    17.5294 C.3     
 222 C222          14.5811    10.2416    16.0189 C.3     
 223 N223          13.5420     9.9835    20.2792 N.am    
 224 O224          14.8220    11.7866    20.4589 O.2     
 225 C225          15.2773     9.0915    15.2886 C.3     
 226 O226           9.7129    23.0715    17.7641 O.3     
 227 C227          13.0941    10.2484    15.6590 C.3     
 228 C228          13.3364    42.9099    24.3628 C.3     
 229 N229          11.3938    42.9618    25.8531 N.3     
 230 C230           9.9689    42.6071    25.8958 C.3     
 231 C231          12.8824    44.1536    23.5959 C.3     
 232 C232          14.1031    44.9990    23.2270 C.3     
 233 C233          12.1524    43.7280    22.3204 C.3     
 234 C234          16.6322    37.5290    23.3605 C.3     
 235 H235          11.4495    41.9266    24.0259 H       
 236 H236          12.5931    39.7960    23.7896 H       
 237 H237          13.8454    38.7181    26.1973 H       
 238 H238          14.2592    36.1213    25.6070 H       
 239 H239          14.5991    35.7604    22.7292 H       
 240 H240          16.0015    33.4683    22.5235 H       
 241 H241          14.4651    31.6252    24.1877 H       
 242 H242          16.4785    30.4207    24.9901 H       
 243 H243          17.5170    31.6523    24.2332 H       
 244 H244          16.4547    32.0960    25.5908 H       
 245 H245          15.3770    29.1918    23.4740 H       
 246 H246          15.1679    29.2577    20.5620 H       
 247 H247          14.8786    26.9018    19.7110 H       
 248 H248          14.1338    25.0751    21.9285 H       
 249 H249          13.7699    22.6920    20.7239 H       
 250 H250          15.6456    22.3593    18.5106 H       
 251 H251          16.1601    21.1726    21.2739 H       
 252 H252          17.0206    20.6919    19.7918 H       
 253 H253          15.8351    19.6872    18.2161 H       
 254 H254          13.3766    18.3773    19.0919 H       
 255 H255          13.9351    18.9978    16.1573 H       
 256 H256          12.6864    17.8663    16.7309 H       
 257 H257          13.3795    16.0342    17.7606 H       
 258 H258          16.0390    14.9738    18.3351 H       
 259 H259          16.2063    13.8879    16.0757 H       
 260 H260          14.8014    14.8458    15.5492 H       
 261 H261          15.8626    12.3729    17.6518 H       
 262 H262          16.0353    16.9354    16.0588 H       
 263 H263          17.4402    15.9775    16.5852 H       
 264 H264          17.6092    14.9810    14.3209 H       
 265 H265          16.2044    15.9389    13.7945 H       
 266 H266          18.1352    17.7029    14.8607 H       
 267 H267          17.5588    27.9321    21.9156 H       
 268 H268          16.7742    28.3357    18.9939 H       
 269 H269          18.3115    27.6355    19.5549 H       
 270 H270          16.7786    26.7899    19.8764 H       
 271 H271          17.7428    30.3118    21.8221 H       
 272 H272          12.6107    25.5814    19.3335 H       
 273 H273          12.2409    24.2770    20.4868 H       
 274 H274          10.0404    26.9988    21.5487 H       
 275 H275          17.7986    23.0265    19.4863 H       
 276 H276          16.9381    23.5071    20.9685 H       
 277 H277          18.3188    21.9223    22.2840 H       
 278 H278          19.1793    21.4417    20.8019 H       
 279 H279          19.9573    23.7762    20.4965 H       
 280 H280          19.0968    24.2569    21.9786 H       
 281 H281          21.2314    22.2272    21.8690 H       
 282 H282          21.4173    23.7892    22.4087 H       
 283 H283          13.7099    21.3857    16.5214 H       
 284 H284          10.7143    18.6733    17.8858 H       
 285 H285           9.1634    20.5533    18.2315 H       
 286 H286          12.1666    23.2715    16.8687 H       
 287 H287          19.5211    18.8978    13.3368 H       
 288 H288          19.7248    18.3340    11.7673 H       
 289 H289          18.6417    16.3884    11.1173 H       
 290 H290          17.0281    35.4762    22.8407 H       
 291 H291          16.7770    36.1900    25.6436 H       
 292 H292          11.2296    37.6086    25.0858 H       
 293 H293          12.2546    36.7752    26.2788 H       
 294 H294          12.0103    38.6947    27.8295 H       
 295 H295          10.9854    39.5281    26.6365 H       
 296 H296           9.3540    37.6633    26.7355 H       
 297 H297          10.3789    36.8299    27.9285 H       
 298 H298           9.8257    39.4271    28.8902 H       
 299 H299           8.1163    39.6721    30.5299 H       
 300 H300           6.9439    38.4815    30.7055 H       
 301 H301           7.0196    36.6119    29.3344 H       
 302 H302          13.1192    11.4153    17.9418 H       
 303 H303          15.7972     9.9628    17.7751 H       
 304 H304          14.2123     9.1554    17.8423 H       
 305 H305          15.0317    11.1879    15.7195 H       
 306 H306          13.0421     9.3804    19.7071 H       
 307 H307          13.5706     9.8315    21.2368 H       
 308 H308          14.8267     8.1452    15.5880 H       
 309 H309          15.1646     9.2232    14.2125 H       
 310 H310          16.3367     9.0866    15.5450 H       
 311 H311           9.7587    23.4621    18.6475 H       
 312 H312          12.5981    11.0678    16.1793 H       
 313 H313          12.9813    10.3802    14.5829 H       
 314 H314          12.6434     9.3022    15.9584 H       
 315 H315          13.9499    43.2106    25.2122 H       
 316 H316          13.9197    42.2685    23.7023 H       
 317 H317          11.8150    42.8771    26.7661 H       
 318 H318           9.8660    41.5381    26.0824 H       
 319 H319           9.4796    43.1641    26.6949 H       
 320 H320           9.5038    42.8558    24.9420 H       
 321 H321          12.2095    44.7405    24.2211 H       
 322 H322          13.7744    45.9259    22.7569 H       
 323 H323          14.6709    45.2301    24.1283 H       
 324 H324          14.7336    44.4433    22.5329 H       
 325 H325          11.2828    43.1257    22.5833 H       
 326 H326          11.8290    44.6140    21.7741 H       
 327 H327          12.8253    43.1411    21.6953 H       
 328 H328          16.1372    38.0807    24.1596 H       
 329 H329          17.6813    37.8211    23.3130 H       
 330 H330          16.1489    37.7543    22.4098 H       
@<TRIPOS>BOND
   1    1    2 1
   2    1   57 1
   3    1   67 1
   4    1   68 1
   5    2    3 1
   6    2   69 1
   7    2   70 1
   8    3    4 1
   9    3   71 1
  10    3   72 1
  11    4    5 1
  12    4   73 1
  13    4   74 1
  14    5    6 1
  15    5   75 1
  16    5   76 1
  17    6    7 1
  18    6   77 1
  19    6   78 1
  20    7    8 1
  21    7   79 1
  22    7   80 1
  23    8    9 1
  24    8   81 1
  25    8   82 1
  26    9   10 1
  27    9   83 1
  28    9   84 1
  29   10   11 1
  30   10   85 1
  31   10   86 1
  32   11   12 1
  33   11   87 1
  34   11   88 1
  35   12   13 1
  36   12   89 1
  37   12   90 1
  38   13   14 1
  39   13   91 1
  40   13   92 1
  41   14   15 1
  42   14   93 1
  43   14   94 1
  44   15   16 am
  45   15   17 2
  46   16   18 1
  47   16   58 1
  48   18   19 1
  49   18   95 1
  50   18   96 1
  51   19   20 am
  52   19   21 2
  53   20   22 1
  54   20   97 1
  55   22   23 1
  56   22   98 1
  57   22   99 1
  58   23   24 am
  59   23   25 2
  60   24   26 1
  61   24  100 1
  62   26   27 1
  63   26   30 1
  64   26  101 1
  65   27   28 2
  66   27   29 am
  67   29   33 1
  68   29  102 1
  69   30   31 1
  70   30  103 1
  71   30  104 1
  72   31   32 ar
  73   31   54 ar
  74   32   51 ar
  75   32  105 1
  76   33   34 1
  77   33   35 1
  78   33  106 1
  79   34   38 1
  80   34  107 1
  81   34  108 1
  82   35   36 2
  83   35   37 am
  84   37   41 1
  85   37  109 1
  86   38   39 1
  87   38  110 1
  88   38  111 1
  89   39   40 am
  90   39   56 2
  91   40  112 1
  92   40  113 1
  93   41   42 1
  94   41   43 1
  95   41  114 1
  96   42   59 1
  97   42  115 1
  98   42  116 1
  99   43   44 2
 100   43   45 am
 101   45   46 1
 102   45  117 1
 103   46   47 1
 104   46   48 1
 105   46  118 1
 106   47   49 1
 107   47  119 1
 108   47  120 1
 109   48   64 2
 110   48   65 1
 111   49   50 1
 112   49  121 1
 113   49  122 1
 114   50   63 1
 115   50  123 1
 116   50  124 1
 117   51   52 ar
 118   51  125 1
 119   52   53 ar
 120   52   55 1
 121   53   54 ar
 122   53  126 1
 123   54  127 1
 124   55  128 1
 125   57  129 1
 126   57  130 1
 127   57  131 1
 128   59   60 1
 129   59  132 1
 130   59  133 1
 131   60   61 1
 132   60  134 1
 133   60  135 1
 134   61   62 1
 135   61  136 1
 136   61  137 1
 137   62  138 1
 138   62  139 1
 139   63   66 1
 140   63  140 1
 141   63  141 1
 142   65  142 1
 143   65  143 1
 144   65  144 1
 145   66  145 1
 146   66  146 1
 147  147  148 1
 148  147  228 1
 149  147  229 1
 150  147  235 1
 151  148  149 am
 152  148  218 2
 153  149  150 1
 154  149  236 1
 155  150  151 1
 156  150  211 1
 157  150  237 1
 158  151  152 am
 159  151  210 2
 160  152  153 1
 161  152  238 1
 162  153  154 1
 163  153  208 1
 164  153  239 1
 165  154  155 am
 166  154  156 2
 167  155  157 1
 168  155  240 1
 169  157  158 1
 170  157  159 1
 171  157  241 1
 172  158  160 am
 173  158  161 2
 174  159  242 1
 175  159  243 1
 176  159  244 1
 177  160  162 1
 178  160  245 1
 179  162  163 1
 180  162  189 1
 181  162  246 1
 182  163  164 am
 183  163  165 2
 184  164  166 1
 185  164  247 1
 186  166  167 1
 187  166  192 1
 188  166  248 1
 189  167  168 2
 190  167  169 am
 191  169  170 1
 192  169  249 1
 193  170  171 1
 194  170  172 1
 195  170  250 1
 196  171  196 1
 197  171  251 1
 198  171  252 1
 199  172  173 2
 200  172  174 am
 201  174  175 1
 202  174  253 1
 203  175  176 1
 204  175  177 1
 205  175  254 1
 206  176  200 1
 207  176  255 1
 208  176  256 1
 209  177  178 2
 210  177  179 am
 211  179  180 1
 212  179  257 1
 213  180  181 1
 214  180  182 1
 215  180  258 1
 216  181  185 1
 217  181  259 1
 218  181  260 1
 219  182  183 2
 220  182  184 am
 221  184  219 1
 222  184  261 1
 223  185  186 1
 224  185  262 1
 225  185  263 1
 226  186  187 1
 227  186  264 1
 228  186  265 1
 229  187  188 1
 230  187  266 1
 231  188  206 1
 232  188  207 2
 233  189  190 1
 234  189  191 1
 235  189  267 1
 236  190  268 1
 237  190  269 1
 238  190  270 1
 239  191  271 1
 240  192  193 1
 241  192  272 1
 242  192  273 1
 243  193  194 1
 244  193  195 2
 245  194  274 1
 246  196  197 1
 247  196  275 1
 248  196  276 1
 249  197  198 1
 250  197  277 1
 251  197  278 1
 252  198  199 1
 253  198  279 1
 254  198  280 1
 255  199  281 1
 256  199  282 1
 257  200  201 ar
 258  200  202 ar
 259  201  205 ar
 260  201  283 1
 261  202  203 ar
 262  202  284 1
 263  203  204 ar
 264  203  285 1
 265  204  205 ar
 266  204  226 1
 267  205  286 1
 268  206  287 1
 269  206  288 1
 270  207  289 1
 271  208  209 1
 272  208  234 1
 273  208  290 1
 274  209  291 1
 275  211  212 1
 276  211  292 1
 277  211  293 1
 278  212  213 1
 279  212  294 1
 280  212  295 1
 281  213  214 1
 282  213  296 1
 283  213  297 1
 284  214  215 1
 285  214  298 1
 286  215  216 1
 287  215  217 2
 288  216  299 1
 289  216  300 1
 290  217  301 1
 291  219  220 1
 292  219  221 1
 293  219  302 1
 294  220  223 am
 295  220  224 2
 296  221  222 1
 297  221  303 1
 298  221  304 1
 299  222  225 1
 300  222  227 1
 301  222  305 1
 302  223  306 1
 303  223  307 1
 304  225  308 1
 305  225  309 1
 306  225  310 1
 307  226  311 1
 308  227  312 1
 309  227  313 1
 310  227  314 1
 311  228  231 1
 312  228  315 1
 313  228  316 1
 314  229  230 1
 315  229  317 1
 316  230  318 1
 317  230  319 1
 318  230  320 1
 319  231  232 1
 320  231  233 1
 321  231  321 1
 322  232  322 1
 323  232  323 1
 324  232  324 1
 325  233  325 1
 326  233  326 1
 327  233  327 1
 328  234  328 1
 329  234  329 1
 330  234  330 1

#	End of record

