#	Name: ASD01883660
#	Creating user name:	WinNT
#	Creation time:	15. 06. 2019 19:46

#	Modifying user name:	WinNT
#	Modification time:	15. 06. 2019 19:46

#	Program:	/corina/corina34_cracker 3.40 0067  02.08.2006

@<TRIPOS>MOLECULE
ASD01883660
  48   51    0    0    0
SMALL
NO_CHARGES


@<TRIPOS>ATOM
   1 C1            -0.8664    -0.2204     1.2119 C.2     
   2 C2            -0.1477    -0.2655     0.0110 C.2     
   3 C3            -0.7411     0.2413    -1.1601 C.2     
   4 C4            -1.9811     0.7651    -1.1394 C.2     
   5 N5            -2.7175     0.8300     0.0071 N.pl3   
   6 C6            -2.2151     0.3521     1.1896 C.2     
   7 C7            -3.9763     1.3090     0.2752 C.2     
   8 C8            -4.2017     1.1196     1.5909 C.2     
   9 N9            -3.1236     0.5374     2.1298 N.2     
  10 N10            1.1269    -0.7999    -0.0236 N.pl3   
  11 C11            1.3563    -2.2244     0.2616 C.3     
  12 C12            2.1948    -2.8196    -0.8746 C.3     
  13 N13            3.4127    -2.0177    -1.0519 N.3     
  14 C14            3.0913    -0.6433    -1.4589 C.3     
  15 C15            2.2889     0.0397    -0.3526 C.3     
  16 C16            4.2761    -2.6175    -1.9613 C.ar    
  17 N17            3.7834    -3.2461    -3.0172 N.ar    
  18 C18            4.5681    -3.8285    -3.9042 C.ar    
  19 C19            5.9406    -3.8027    -3.7603 C.ar    
  20 C20            6.4978    -3.1536    -2.6662 C.ar    
  21 C21            5.6506    -2.5471    -1.7567 C.ar    
  22 C22           -4.9271     1.9302    -0.7153 C.3     
  23 C23           -4.7804     3.4527    -0.6772 C.3     
  24 F24           -3.4672     3.8031    -1.0086 F       
  25 F25           -5.6631     4.0294    -1.5967 F       
  26 F26           -5.0768     3.9177     0.6085 F       
  27 C27            6.2080    -1.8302    -0.5541 C.3     
  28 C28           -0.3014    -0.7253     2.4270 C.1     
  29 N29            0.1469    -1.1259     3.3909 N.1     
  30 H30           -0.1928     0.2100    -2.0901 H       
  31 H31           -2.4051     1.1452    -2.0571 H       
  32 H32           -5.1031     1.3896     2.1210 H       
  33 H33            1.8925    -2.3273     1.2050 H       
  34 H34            0.4001    -2.7443     0.3221 H       
  35 H35            2.4675    -3.8453    -0.6266 H       
  36 H36            1.6154    -2.8099    -1.7978 H       
  37 H37            4.0143    -0.0907    -1.6347 H       
  38 H38            2.4994    -0.6639    -2.3740 H       
  39 H39            1.9506     1.0174    -0.6959 H       
  40 H40            2.9123     0.1553     0.5339 H       
  41 H41            4.1306    -4.3322    -4.7535 H       
  42 H42            6.5748    -4.2828    -4.4909 H       
  43 H43            7.5687    -3.1196    -2.5309 H       
  44 H44           -4.6961     1.5679    -1.7170 H       
  45 H45           -5.9503     1.6572    -0.4571 H       
  46 H46            6.4554    -0.8038    -0.8253 H       
  47 H47            5.4649    -1.8263     0.2433 H       
  48 H48            7.1070    -2.3419    -0.2105 H       
@<TRIPOS>BOND
   1    1    2 2
   2    1   28 1
   3    1    6 1
   4    2    3 1
   5    2   10 1
   6    3    4 2
   7    3   30 1
   8    4    5 1
   9    4   31 1
  10    5    6 1
  11    5    7 1
  12    6    9 2
  13    7    8 2
  14    7   22 1
  15    8    9 1
  16    8   32 1
  17   10   11 1
  18   10   15 1
  19   11   12 1
  20   11   33 1
  21   11   34 1
  22   12   13 1
  23   12   35 1
  24   12   36 1
  25   13   14 1
  26   13   16 1
  27   14   15 1
  28   14   37 1
  29   14   38 1
  30   15   39 1
  31   15   40 1
  32   16   17 ar
  33   16   21 ar
  34   17   18 ar
  35   18   19 ar
  36   18   41 1
  37   19   20 ar
  38   19   42 1
  39   20   21 ar
  40   20   43 1
  41   21   27 1
  42   22   23 1
  43   22   44 1
  44   22   45 1
  45   23   24 1
  46   23   25 1
  47   23   26 1
  48   27   46 1
  49   27   47 1
  50   27   48 1
  51   28   29 3

#	End of record

