#	Name: ASD01884619
#	Creating user name:	WinNT
#	Creation time:	15. 06. 2019 19:48

#	Modifying user name:	WinNT
#	Modification time:	15. 06. 2019 19:48

#	Program:	/corina/corina34_cracker 3.40 0067  02.08.2006

@<TRIPOS>MOLECULE
ASD01884619
  38   41    0    0    0
SMALL
NO_CHARGES


@<TRIPOS>ATOM
   1 C1            -0.0164     1.3576     0.0095 C.2     
   2 C2             0.0021    -0.0041     0.0020 C.2     
   3 C3             1.2440    -0.6751    -0.0134 C.2     
   4 C4             2.4025     0.0465    -0.0206 C.2     
   5 N5             2.3700     1.4024    -0.0130 N.am    
   6 C6             1.1986     2.0652     0.0017 C.2     
   7 O7             1.1910     3.2857     0.0087 O.2     
   8 C8             3.6266     2.1556    -0.0210 C.3     
   9 C9             1.2898    -2.1582    -0.0214 C.ar    
  10 C10            4.0439     2.4215    -1.4444 C.ar    
  11 C11            3.6195     3.5703    -2.0851 C.ar    
  12 C12            4.0007     3.8162    -3.3912 C.ar    
  13 C13            4.8082     2.9119    -4.0581 C.ar    
  14 C14            5.2344     1.7594    -3.4151 C.ar    
  15 C15            4.8554     1.5187    -2.1062 C.ar    
  16 F16            5.1807     3.1513    -5.3345 F       
  17 C17            1.6345    -2.8530     1.1362 C.ar    
  18 F18            6.0225     0.8748    -4.0644 F       
  19 C19            1.6758    -4.2328     1.1266 C.ar    
  20 C20            1.3767    -4.9314    -0.0289 C.ar    
  21 C21            1.0323    -4.2518    -1.1875 C.ar    
  22 C22            0.9820    -2.8621    -1.1870 C.ar    
  23 O23            0.6999    -4.7001    -2.4336 O.3     
  24 C24            0.0554    -3.5882    -3.0828 C.3     
  25 O25            0.6226    -2.4367    -2.4328 O.3     
  26 H26           -0.9563     1.8894     0.0169 H       
  27 H27           -0.9217    -0.5635     0.0082 H       
  28 H28            3.3529    -0.4664    -0.0321 H       
  29 H29            3.4856     3.1030     0.4993 H       
  30 H30            4.4006     1.5763     0.4824 H       
  31 H31            2.9892     4.2765    -1.5651 H       
  32 H32            3.6678     4.7139    -3.8909 H       
  33 H33            5.1869     0.6218    -1.6043 H       
  34 H34            1.8696    -2.3121     2.0409 H       
  35 H35            1.9432    -4.7690     2.0251 H       
  36 H36            1.4118    -6.0108    -0.0290 H       
  37 H37            0.2852    -3.5809    -4.1482 H       
  38 H38           -1.0222    -3.6231    -2.9225 H       
@<TRIPOS>BOND
   1    1    2 2
   2    1    6 1
   3    1   26 1
   4    2    3 1
   5    2   27 1
   6    3    4 2
   7    3    9 1
   8    4    5 1
   9    4   28 1
  10    5    6 am
  11    5    8 1
  12    6    7 2
  13    8   10 1
  14    8   29 1
  15    8   30 1
  16    9   17 ar
  17    9   22 ar
  18   10   11 ar
  19   10   15 ar
  20   11   12 ar
  21   11   31 1
  22   12   13 ar
  23   12   32 1
  24   13   14 ar
  25   13   16 1
  26   14   15 ar
  27   14   18 1
  28   15   33 1
  29   17   19 ar
  30   17   34 1
  31   19   20 ar
  32   19   35 1
  33   20   21 ar
  34   20   36 1
  35   21   22 ar
  36   21   23 1
  37   22   25 1
  38   23   24 1
  39   24   25 1
  40   24   37 1
  41   24   38 1

#	End of record

