#	Name: ASD03090299
#	Creating user name:	WinNT
#	Creation time:	15. 06. 2019 20:28

#	Modifying user name:	WinNT
#	Modification time:	15. 06. 2019 20:28

#	Program:	/corina/corina34_cracker 3.40 0067  02.08.2006

@<TRIPOS>MOLECULE
ASD03090299
  43   45    0    0    0
SMALL
NO_CHARGES


@<TRIPOS>ATOM
   1 N1             0.0972     1.4027     0.6988 N.ar    
   2 C2             0.2159     0.4736    -0.2299 C.ar    
   3 C3             1.4005    -0.2207    -0.3909 C.ar    
   4 C4             2.4809     0.0773     0.4501 C.ar    
   5 C5             2.3077     1.0705     1.4196 C.ar    
   6 C6             1.0898     1.7129     1.5101 C.ar    
   7 C7             3.7687    -0.6390     0.3166 C.2     
   8 N8             5.7584    -3.5245     0.0503 N.pl3   
   9 C9             4.9094    -4.6314    -0.0300 C.ar    
  10 C10            3.6787    -4.5195    -0.6650 C.ar    
  11 C11            2.8397    -5.6142    -0.7447 C.ar    
  12 C12            3.2214    -6.8223    -0.1933 C.ar    
  13 C13            4.4496    -6.9399     0.4428 C.ar    
  14 C14            5.2969    -5.8461     0.5196 C.ar    
  15 N15            3.9264    -1.9463     0.2595 N.2     
  16 C16            5.2222    -2.2383     0.1388 C.2     
  17 N17            5.9127    -1.1213     0.1169 N.2     
  18 N18            4.9905    -0.0679     0.2259 N.pl3   
  19 C19            5.2933     1.3653     0.2459 C.3     
  20 C20            5.1763     1.9230    -1.1493 C.2     
  21 N21            5.4119     3.2308    -1.3742 N.am    
  22 O22            4.8231    -8.1286     0.9854 O.3     
  23 O23            4.8702     1.1949    -2.0696 O.2     
  24 C24            5.2981     3.7728    -2.7305 C.3     
  25 F25            1.5144    -1.1717    -1.3437 F       
  26 C26            3.9025    -9.2148     0.8643 C.3     
  27 F27            3.6663    -9.4772    -0.4894 F       
  28 F28            4.4419   -10.3533     1.4728 F       
  29 F29            2.6981    -8.8775     1.4910 F       
  30 H30           -0.6234     0.2521    -0.8725 H       
  31 H31            3.1152     1.3303     2.0881 H       
  32 H32            0.9475     2.4813     2.2555 H       
  33 H33            6.7203    -3.6496     0.0447 H       
  34 H34            3.3776    -3.5762    -1.0962 H       
  35 H35            1.8834    -5.5254    -1.2387 H       
  36 H36            2.5631    -7.6761    -0.2569 H       
  37 H37            6.2528    -5.9358     1.0141 H       
  38 H38            4.5885     1.8765     0.9017 H       
  39 H39            6.3079     1.5173     0.6140 H       
  40 H40            5.6567     3.8131    -0.6381 H       
  41 H41            6.0029     3.2617    -3.3863 H       
  42 H42            4.2835     3.6209    -3.0986 H       
  43 H43            5.5234     4.8392    -2.7156 H       
@<TRIPOS>BOND
   1    1    2 ar
   2    1    6 ar
   3    2    3 ar
   4    2   30 1
   5    3    4 ar
   6    3   25 1
   7    4    5 ar
   8    4    7 1
   9    5    6 ar
  10    5   31 1
  11    6   32 1
  12    7   15 2
  13    7   18 1
  14    8    9 1
  15    8   16 1
  16    8   33 1
  17    9   10 ar
  18    9   14 ar
  19   10   11 ar
  20   10   34 1
  21   11   12 ar
  22   11   35 1
  23   12   13 ar
  24   12   36 1
  25   13   14 ar
  26   13   22 1
  27   14   37 1
  28   15   16 1
  29   16   17 2
  30   17   18 1
  31   18   19 1
  32   19   20 1
  33   19   38 1
  34   19   39 1
  35   20   21 am
  36   20   23 2
  37   21   24 1
  38   21   40 1
  39   22   26 1
  40   24   41 1
  41   24   42 1
  42   24   43 1
  43   26   27 1
  44   26   28 1
  45   26   29 1

#	End of record

