#	Name: ASD02038813
#	Creating user name:	WinNT
#	Creation time:	15. 06. 2019 20:17

#	Modifying user name:	WinNT
#	Modification time:	15. 06. 2019 20:17

#	Program:	/corina/corina34_cracker 3.40 0067  02.08.2006

@<TRIPOS>MOLECULE
ASD02038813
  46   48    0    0    0
SMALL
NO_CHARGES


@<TRIPOS>ATOM
   1 C1            -1.2821    -0.8496     0.4637 C.2     
   2 C2            -0.0597    -0.0336     0.3009 C.2     
   3 N3             1.1374    -0.6350     0.1537 N.am    
   4 C4             1.2415    -2.0931     0.2506 C.3     
   5 C5             1.2139    -2.6917    -1.1321 C.ar    
   6 C6             2.3346     0.1694    -0.1032 C.3     
   7 O7            -0.1346     1.1797     0.2998 O.2     
   8 N8            -1.3387    -2.1936     0.4937 N.2     
   9 C9            -2.5944    -2.5261     0.6528 C.2     
  10 N10           -3.3115    -1.3893     0.7209 N.pl3   
  11 N11           -2.5054    -0.3901     0.6106 N.2     
  12 C12            2.3973    -3.0136    -1.7685 C.ar    
  13 C13            2.1239     1.0136    -1.3638 C.3     
  14 C14            3.3474     1.9081    -1.5798 C.3     
  15 O15            3.5470     2.7268    -0.4257 O.3     
  16 C16            3.7959     1.9924     0.7746 C.3     
  17 C17            2.5904     1.1013     1.0853 C.3     
  18 C18           -4.7633    -1.3024     0.8967 C.3     
  19 C19            0.0046    -2.9233    -1.7602 C.ar    
  20 C20           -0.0240    -3.4738    -3.0297 C.ar    
  21 C21            1.1578    -3.7926    -3.6723 C.ar    
  22 C22            2.3721    -3.5650    -3.0411 C.ar    
  23 O23            3.5353    -3.8771    -3.6708 O.3     
  24 C24            3.4335    -4.4365    -4.9818 C.3     
  25 F25            2.7804    -3.5317    -5.8255 F       
  26 Cl26          -1.5445    -3.7646    -3.8153 Cl      
  27 F27            4.7152    -4.6960    -5.4789 F       
  28 F28            2.7052    -5.6297    -4.9244 F       
  29 H29            2.1770    -2.3586     0.7429 H       
  30 H30            0.4033    -2.4794     0.8306 H       
  31 H31            3.1924    -0.4882    -0.2438 H       
  32 H32           -2.9847    -3.5311     0.7173 H       
  33 H33            3.3416    -2.8357    -1.2754 H       
  34 H34            1.9960     0.3572    -2.2246 H       
  35 H35            1.2359     1.6340    -1.2425 H       
  36 H36            4.2281     1.2866    -1.7413 H       
  37 H37            3.1848     2.5420    -2.4515 H       
  38 H38            4.6825     1.3720     0.6439 H       
  39 H39            3.9565     2.6871     1.5991 H       
  40 H40            1.7119     1.7235     1.2560 H       
  41 H41            2.7962     0.5077     1.9760 H       
  42 H42           -4.9988    -1.2633     1.9603 H       
  43 H43           -5.1351    -0.4013     0.4090 H       
  44 H44           -5.2362    -2.1779     0.4518 H       
  45 H45           -0.9194    -2.6748    -1.2593 H       
  46 H46            1.1356    -4.2225    -4.6628 H       
@<TRIPOS>BOND
   1    1    2 1
   2    1    8 1
   3    1   11 2
   4    2    3 am
   5    2    7 2
   6    3    4 1
   7    3    6 1
   8    4    5 1
   9    4   29 1
  10    4   30 1
  11    5   12 ar
  12    5   19 ar
  13    6   13 1
  14    6   17 1
  15    6   31 1
  16    8    9 2
  17    9   10 1
  18    9   32 1
  19   10   11 1
  20   10   18 1
  21   12   22 ar
  22   12   33 1
  23   13   14 1
  24   13   34 1
  25   13   35 1
  26   14   15 1
  27   14   36 1
  28   14   37 1
  29   15   16 1
  30   16   17 1
  31   16   38 1
  32   16   39 1
  33   17   40 1
  34   17   41 1
  35   18   42 1
  36   18   43 1
  37   18   44 1
  38   19   20 ar
  39   19   45 1
  40   20   21 ar
  41   20   26 1
  42   21   22 ar
  43   21   46 1
  44   22   23 1
  45   23   24 1
  46   24   25 1
  47   24   27 1
  48   24   28 1

#	End of record

