#	Name: ASD00060048
#	Creating user name:	WinNT
#	Creation time:	15. 06. 2019 18:29

#	Modifying user name:	WinNT
#	Modification time:	15. 06. 2019 18:29

#	Program:	/corina/corina34_cracker 3.40 0067  02.08.2006

@<TRIPOS>MOLECULE
ASD00060048
  51   54    0    0    0
SMALL
NO_CHARGES


@<TRIPOS>ATOM
   1 C1             1.1848     3.4562    -0.0645 C.ar    
   2 C2             2.4170     4.1267    -0.1439 C.ar    
   3 C3             3.5742     3.4099    -0.1564 C.ar    
   4 C4             3.5567     2.0182    -0.0920 C.ar    
   5 C5             2.3820     1.3348    -0.0147 C.ar    
   6 C6             1.1671     2.0404     0.0015 C.ar    
   7 C7            -0.0655     1.3698     0.0815 C.ar    
   8 C8            -1.2223     2.0864     0.0945 C.ar    
   9 C9            -1.2049     3.4786     0.0294 C.ar    
  10 C10           -0.0303     4.1621    -0.0435 C.ar    
  11 C11           -2.5060     4.2387     0.0461 C.3     
  12 C12           -2.7668     4.8248    -1.3421 C.3     
  13 C13           -3.9672     5.7751    -1.2562 C.3     
  14 C14           -3.5657     6.9868    -0.4115 C.3     
  15 C15           -2.9184     6.5286     0.8638 C.2     
  16 N16           -2.4313     5.3001     1.0422 N.am    
  17 C17           -3.0712     3.7121    -2.3117 C.2     
  18 O18           -3.3335     3.9951    -3.5973 O.3     
  19 O19           -3.0790     2.5651    -1.9319 O.2     
  20 C20           -1.7801     4.9985     2.3194 C.3     
  21 O21           -2.8338     7.3183     1.7804 O.2     
  22 C22           -2.8377     4.5921     3.3476 C.3     
  23 C23           -1.8045     2.8416     4.8080 C.ar    
  24 C24           -1.1821     2.4492     5.9780 C.ar    
  25 C25           -0.9144     3.3811     6.9649 C.ar    
  26 C26           -1.2700     4.7053     6.7800 C.ar    
  27 C27           -1.8924     5.0964     5.6095 C.ar    
  28 C28           -2.1596     4.1648     4.6237 C.ar    
  29 Cl29          -0.1332     2.8889     8.4350 Cl      
  30 H30            2.4459     5.2051    -0.1952 H       
  31 H31            4.5200     3.9277    -0.2175 H       
  32 H32            4.4892     1.4734    -0.1040 H       
  33 H33            2.3838     0.2559     0.0338 H       
  34 H34           -0.0944     0.2914     0.1322 H       
  35 H35           -2.1681     1.5686     0.1557 H       
  36 H36           -0.0321     5.2412    -0.0887 H       
  37 H37           -3.3169     3.5591     0.3083 H       
  38 H38           -1.8879     5.3753    -1.6776 H       
  39 H39           -4.2484     6.1025    -2.2572 H       
  40 H40           -4.8077     5.2632    -0.7874 H       
  41 H41           -2.8633     7.6029    -0.9730 H       
  42 H42           -4.4531     7.5744    -0.1764 H       
  43 H43           -3.5230     3.2482    -4.1815 H       
  44 H44           -1.0732     4.1802     2.1824 H       
  45 H45           -1.2491     5.8818     2.6740 H       
  46 H46           -3.4922     5.4398     3.5501 H       
  47 H47           -3.4272     3.7638     2.9545 H       
  48 H48           -2.0095     2.1150     4.0356 H       
  49 H49           -0.9051     1.4153     6.1219 H       
  50 H50           -1.0616     5.4331     7.5502 H       
  51 H51           -2.1703     6.1300     5.4652 H       
@<TRIPOS>BOND
   1    1    2 ar
   2    1    6 ar
   3    1   10 ar
   4    2    3 ar
   5    2   30 1
   6    3    4 ar
   7    3   31 1
   8    4    5 ar
   9    4   32 1
  10    5    6 ar
  11    5   33 1
  12    6    7 ar
  13    7    8 ar
  14    7   34 1
  15    8    9 ar
  16    8   35 1
  17    9   10 ar
  18    9   11 1
  19   10   36 1
  20   11   12 1
  21   11   16 1
  22   11   37 1
  23   12   13 1
  24   12   17 1
  25   12   38 1
  26   13   14 1
  27   13   39 1
  28   13   40 1
  29   14   15 1
  30   14   41 1
  31   14   42 1
  32   15   16 am
  33   15   21 2
  34   16   20 1
  35   17   18 1
  36   17   19 2
  37   18   43 1
  38   20   22 1
  39   20   44 1
  40   20   45 1
  41   22   28 1
  42   22   46 1
  43   22   47 1
  44   23   24 ar
  45   23   28 ar
  46   23   48 1
  47   24   25 ar
  48   24   49 1
  49   25   26 ar
  50   25   29 1
  51   26   27 ar
  52   26   50 1
  53   27   28 ar
  54   27   51 1

#	End of record

