#	Name: ASD03430614
#	Creating user name:	WinNT
#	Creation time:	15. 06. 2019 20:41

#	Modifying user name:	WinNT
#	Modification time:	15. 06. 2019 20:41

#	Program:	/corina/corina34_cracker 3.40 0067  02.08.2006

@<TRIPOS>MOLECULE
ASD03430614
  55   59    0    0    0
SMALL
NO_CHARGES


@<TRIPOS>ATOM
   1 N1            -0.0161     1.3394     0.0094 N.am    
   2 C2             0.0021    -0.0041     0.0020 C.2     
   3 C3             1.4546    -0.4301    -0.0141 C.3     
   4 C4             2.2204     0.8728    -0.0144 C.ar    
   5 C5             3.5688     1.1684    -0.0257 C.ar    
   6 C6             3.9857     2.4974    -0.0226 C.ar    
   7 C7             3.0424     3.5121    -0.0081 C.ar    
   8 C8             1.6951     3.2124     0.0031 C.ar    
   9 C9             1.2701     1.8854     0.0001 C.ar    
  10 O10           -0.9638    -0.7377     0.0077 O.2     
  11 C11           -1.2432     2.1397     0.0198 C.3     
  12 O12           -2.4669     1.6334     2.1850 O.3     
  13 C13           -1.6567     2.4069     1.4441 C.2     
  14 C14           -1.2764     3.4603     2.1892 C.2     
  15 C15           -1.8937     3.3126     3.4525 C.2     
  16 C16           -2.6142     2.1778     3.4039 C.2     
  17 C17           -3.4457     1.6130     4.5267 C.3     
  18 F18           -4.7473     2.1192     4.4433 F       
  19 F19           -3.4804     0.2181     4.4253 F       
  20 F20           -2.8814     1.9774     5.7539 F       
  21 O21            5.3128     2.7977    -0.0332 O.3     
  22 C22            5.6645     4.1827    -0.0291 C.3     
  23 O23            4.4870     0.1654    -0.0394 O.3     
  24 C24            4.9130    -0.3068    -1.3191 C.3     
  25 O25            2.6792    -3.4596     4.5849 O.3     
  26 C26            2.8372    -2.7469     5.8165 C.3     
  27 C27            1.6735    -1.7553     5.9504 C.3     
  28 O28            1.7174    -0.8598     4.8342 O.3     
  29 C29            1.9007    -1.4204     3.6064 C.ar    
  30 C30            2.3830    -2.7182     3.4824 C.ar    
  31 C31            1.6004    -0.6831     2.4713 C.ar    
  32 C32            1.7824    -1.2348     1.2172 C.ar    
  33 C33            2.2660    -2.5282     1.0910 C.ar    
  34 C34            2.5661    -3.2696     2.2236 C.ar    
  35 O35            2.4454    -3.0696    -0.1434 O.3     
  36 H36            1.6746    -1.0025    -0.9153 H       
  37 H37            3.3630     4.5434    -0.0053 H       
  38 H38            0.9670     4.0100     0.0144 H       
  39 H39           -1.0640     3.0862    -0.4902 H       
  40 H40           -2.0363     1.5953    -0.4928 H       
  41 H41           -0.6242     4.2643     1.8816 H       
  42 H42           -1.8037     3.9823     4.2951 H       
  43 H43            6.7500     4.2819    -0.0385 H       
  44 H44            5.2478     4.6660    -0.9128 H       
  45 H45            5.2642     4.6567     0.8671 H       
  46 H46            4.0536    -0.6889    -1.8699 H       
  47 H47            5.3664     0.5130    -1.8764 H       
  48 H48            5.6440    -1.1045    -1.1872 H       
  49 H49            2.8211    -3.4475     6.6513 H       
  50 H50            3.7829    -2.2050     5.8089 H       
  51 H51            0.7274    -2.2967     5.9504 H       
  52 H52            1.7754    -1.1920     6.8779 H       
  53 H53            1.2240     0.3246     2.5673 H       
  54 H54            2.9430    -4.2769     2.1251 H       
  55 H55            3.3241    -2.9156    -0.5165 H       
@<TRIPOS>BOND
   1    1    2 am
   2    1    9 1
   3    1   11 1
   4    2    3 1
   5    2   10 2
   6    3    4 1
   7    3   32 1
   8    3   36 1
   9    4    5 ar
  10    4    9 ar
  11    5    6 ar
  12    5   23 1
  13    6    7 ar
  14    6   21 1
  15    7    8 ar
  16    7   37 1
  17    8    9 ar
  18    8   38 1
  19   11   13 1
  20   11   39 1
  21   11   40 1
  22   12   13 1
  23   12   16 1
  24   13   14 2
  25   14   15 1
  26   14   41 1
  27   15   16 2
  28   15   42 1
  29   16   17 1
  30   17   18 1
  31   17   19 1
  32   17   20 1
  33   21   22 1
  34   22   43 1
  35   22   44 1
  36   22   45 1
  37   23   24 1
  38   24   46 1
  39   24   47 1
  40   24   48 1
  41   25   26 1
  42   25   30 1
  43   26   27 1
  44   26   49 1
  45   26   50 1
  46   27   28 1
  47   27   51 1
  48   27   52 1
  49   28   29 1
  50   29   30 ar
  51   29   31 ar
  52   30   34 ar
  53   31   32 ar
  54   31   53 1
  55   32   33 ar
  56   33   34 ar
  57   33   35 1
  58   34   54 1
  59   35   55 1

#	End of record

