#	Name: ASD09890020
#	Creating user name:	WinNT
#	Creation time:	15. 06. 2019 21:24

#	Modifying user name:	WinNT
#	Modification time:	15. 06. 2019 21:24

#	Program:	/corina/corina34_cracker 3.40 0067  02.08.2006

@<TRIPOS>MOLECULE
ASD09890020
  32   34    0    0    0
SMALL
NO_CHARGES


@<TRIPOS>ATOM
   1 N1            -0.0154     1.2812     0.0091 N.2     
   2 N2             0.0021    -0.0041     0.0020 N.2     
   3 C3             1.2353    -0.4315    -0.0121 C.2     
   4 N4             2.0426     0.6665    -0.0139 N.pl3   
   5 C5             1.2058     1.7421    -0.0001 C.2     
   6 C6             3.4451     0.6856    -0.0265 C.ar    
   7 C7             4.1592    -0.0821     0.8832 C.ar    
   8 C8             5.5402    -0.0617     0.8682 C.ar    
   9 C9             6.2114     0.7225    -0.0519 C.ar    
  10 C10            5.5027     1.4886    -0.9590 C.ar    
  11 C11            4.1216     1.4677    -0.9524 C.ar    
  12 C12            1.6142     3.1927     0.0030 C.3     
  13 O13            1.7564     3.6446     1.3512 O.3     
  14 C14            2.1232     4.9406     1.5321 C.ar    
  15 C15            2.2797     5.4460     2.8146 C.ar    
  16 C16            2.6526     6.7637     2.9958 C.ar    
  17 C17            2.8698     7.5788     1.9003 C.ar    
  18 C18            2.7140     7.0777     0.6211 C.ar    
  19 C19            2.3473     5.7590     0.4345 C.ar    
  20 H20            1.5560    -1.4628    -0.0207 H       
  21 H21            3.6355    -0.6945     1.6023 H       
  22 H22            6.0963    -0.6585     1.5759 H       
  23 H23            7.2913     0.7369    -0.0619 H       
  24 H24            6.0296     2.1004    -1.6763 H       
  25 H25            3.5686     2.0628    -1.6641 H       
  26 H26            2.5643     3.3039    -0.5195 H       
  27 H27            0.8510     3.7861    -0.5005 H       
  28 H28            2.1098     4.8098     3.6706 H       
  29 H29            2.7742     7.1577     3.9940 H       
  30 H30            3.1612     8.6088     2.0440 H       
  31 H31            2.8836     7.7166    -0.2330 H       
  32 H32            2.2304     5.3667    -0.5650 H       
@<TRIPOS>BOND
   1    1    2 1
   2    1    5 2
   3    2    3 2
   4    3    4 1
   5    3   20 1
   6    4    5 1
   7    4    6 1
   8    5   12 1
   9    6    7 ar
  10    6   11 ar
  11    7    8 ar
  12    7   21 1
  13    8    9 ar
  14    8   22 1
  15    9   10 ar
  16    9   23 1
  17   10   11 ar
  18   10   24 1
  19   11   25 1
  20   12   13 1
  21   12   26 1
  22   12   27 1
  23   13   14 1
  24   14   15 ar
  25   14   19 ar
  26   15   16 ar
  27   15   28 1
  28   16   17 ar
  29   16   29 1
  30   17   18 ar
  31   17   30 1
  32   18   19 ar
  33   18   31 1
  34   19   32 1

#	End of record

