#	Name: ASD01948050
#	Creating user name:	WinNT
#	Creation time:	15. 06. 2019 20:13

#	Modifying user name:	WinNT
#	Modification time:	15. 06. 2019 20:13

#	Program:	/corina/corina34_cracker 3.40 0067  02.08.2006

@<TRIPOS>MOLECULE
ASD01948050
  34   36    0    0    0
SMALL
NO_CHARGES


@<TRIPOS>ATOM
   1 C1            -0.0161     1.3780    -0.1671 C.2     
   2 C2            -0.0299     0.0106    -0.1708 C.2     
   3 C3             1.1684    -0.7071    -0.0461 C.2     
   4 C4             2.3643    -0.0105     0.0773 C.2     
   5 C5             2.3357     1.3830     0.0796 C.2     
   6 N6             1.1679     2.0422    -0.0312 N.am    
   7 O7            -1.0599     2.2371    -0.2924 O.3     
   8 C8             0.8789     3.4904    -0.0284 C.3     
   9 C9            -0.6484     3.5215     0.2080 C.3     
  10 O10            3.3787     2.0107     0.1833 O.2     
  11 N11           -1.3136    -0.7141    -0.3064 N.pl3   
  12 O12           -2.3639    -0.0973    -0.3092 O.2     
  13 O13           -1.3196    -1.9272    -0.4151 O.2     
  14 C14            3.6711    -0.7498     0.2070 C.3     
  15 N15            1.1599    -2.0918    -0.0455 N.pl3   
  16 C16            0.5485    -2.7872     1.0036 C.ar    
  17 C17            0.4342    -4.1727     0.9485 C.ar    
  18 C18           -0.1701    -4.8560     1.9873 C.ar    
  19 C19           -0.6607    -4.1628     3.0798 C.ar    
  20 C20           -0.5480    -2.7857     3.1364 C.ar    
  21 C21            0.0600    -2.0970     2.1042 C.ar    
  22 I22           -1.5770    -5.2020     4.6513 I       
  23 F23            0.9125    -4.8491    -0.1187 F       
  24 H24            1.4072     3.9896     0.7839 H       
  25 H25            1.1317     3.9381    -0.9896 H       
  26 H26           -1.1129     4.3267    -0.3612 H       
  27 H27           -0.8749     3.6149     1.2701 H       
  28 H28            4.0896    -0.9246    -0.7841 H       
  29 H29            4.3685    -0.1542     0.7961 H       
  30 H30            3.5003    -1.7053     0.7030 H       
  31 H31            1.5778    -2.5797    -0.7723 H       
  32 H32           -0.2596    -5.9315     1.9459 H       
  33 H33           -0.9324    -2.2480     3.9905 H       
  34 H34            0.1513    -1.0219     2.1519 H       
@<TRIPOS>BOND
   1    1    2 2
   2    1    6 1
   3    1    7 1
   4    2    3 1
   5    2   11 1
   6    3    4 2
   7    3   15 1
   8    4    5 1
   9    4   14 1
  10    5    6 am
  11    5   10 2
  12    6    8 1
  13    7    9 1
  14    8    9 1
  15    8   24 1
  16    8   25 1
  17    9   26 1
  18    9   27 1
  19   11   12 2
  20   11   13 2
  21   14   28 1
  22   14   29 1
  23   14   30 1
  24   15   16 1
  25   15   31 1
  26   16   17 ar
  27   16   21 ar
  28   17   18 ar
  29   17   23 1
  30   18   19 ar
  31   18   32 1
  32   19   20 ar
  33   19   22 1
  34   20   21 ar
  35   20   33 1
  36   21   34 1

#	End of record

