#	Name: ASD01028289
#	Creating user name:	WinNT
#	Creation time:	15. 06. 2019 18:56

#	Modifying user name:	WinNT
#	Modification time:	15. 06. 2019 18:56

#	Program:	/corina/corina34_cracker 3.40 0067  02.08.2006

@<TRIPOS>MOLECULE
ASD01028289
  51   55    0    0    0
SMALL
NO_CHARGES


@<TRIPOS>ATOM
   1 C1             0.0700     3.2349     0.1044 C.ar    
   2 C2            -0.1654     1.8799     0.0569 C.ar    
   3 C3             1.3761     3.7344     0.1053 C.ar    
   4 C4             2.4434     2.8921     0.0591 C.ar    
   5 C5             2.2368     1.5052     0.0101 C.ar    
   6 C6             0.9185     0.9883     0.0087 C.ar    
   7 C7             3.3240     0.6038    -0.0390 C.ar    
   8 C8             3.0428    -0.7500    -0.0863 C.ar    
   9 C9             1.7219    -1.1798    -0.0844 C.ar    
  10 N10            0.7193    -0.3342    -0.0381 N.ar    
  11 O11            4.6036     1.0520    -0.0400 O.3     
  12 C12            5.6364     0.0658    -0.0915 C.3     
  13 C13            6.9812     0.7459    -0.0848 C.2     
  14 N14            7.7159     1.0685     1.0164 N.pl3   
  15 C15            8.8589     1.6673     0.5425 C.2     
  16 N16            8.7659     1.6787    -0.7760 N.2     
  17 N17            7.6592     1.1293    -1.1346 N.2     
  18 C18            7.5197     0.9101     2.3513 C.2     
  19 C19            8.4571     1.3450     3.2433 C.2     
  20 C20            9.6445     1.9664     2.7789 C.2     
  21 C21            9.8413     2.1234     1.4461 C.2     
  22 C22            8.2347     1.1689     4.6915 C.2     
  23 O23           -0.9786     4.0974     0.1453 O.3     
  24 C24           -0.6701     5.4919     0.1936 C.3     
  25 O25            7.2167     0.6366     5.0900 O.2     
  26 N26            9.1600     1.5982     5.5724 N.am    
  27 C27            8.9069     1.5206     6.9468 C.ar    
  28 C28            8.1862     0.4511     7.4618 C.ar    
  29 C29            9.3809     2.5101     7.7980 C.ar    
  30 C30            9.1299     2.4317     9.1539 C.ar    
  31 C31            8.4061     1.3673     9.6646 C.ar    
  32 C32            7.9374     0.3766     8.8182 C.ar    
  33 F33            8.1617     1.2925    10.9912 F       
  34 H34           -1.1780     1.5042     0.0570 H       
  35 H35            1.5394     4.8013     0.1426 H       
  36 H36            3.4474     3.2900     0.0600 H       
  37 H37            3.8471    -1.4698    -0.1249 H       
  38 H38            1.5142    -2.2390    -0.1216 H       
  39 H39            5.5564    -0.5897     0.7758 H       
  40 H40            5.5315    -0.5230    -1.0028 H       
  41 H41            6.6167     0.4378     2.7089 H       
  42 H42           10.3877     2.3117     3.4822 H       
  43 H43           10.7414     2.5948     1.0801 H       
  44 H44           -0.0820     5.7032     1.0867 H       
  45 H45           -0.0979     5.7683    -0.6920 H       
  46 H46           -1.5950     6.0678     0.2229 H       
  47 H47           10.0014     1.9608     5.2540 H       
  48 H48            7.8201    -0.3216     6.8020 H       
  49 H49            9.9457     3.3402     7.4002 H       
  50 H50            9.4987     3.2008     9.8163 H       
  51 H51            7.3731    -0.4527     9.2186 H       
@<TRIPOS>BOND
   1    1    2 ar
   2    1    3 ar
   3    1   23 1
   4    2    6 ar
   5    2   34 1
   6    3    4 ar
   7    3   35 1
   8    4    5 ar
   9    4   36 1
  10    5    6 ar
  11    5    7 ar
  12    6   10 ar
  13    7    8 ar
  14    7   11 1
  15    8    9 ar
  16    8   37 1
  17    9   10 ar
  18    9   38 1
  19   11   12 1
  20   12   13 1
  21   12   39 1
  22   12   40 1
  23   13   14 1
  24   13   17 2
  25   14   15 1
  26   14   18 1
  27   15   16 2
  28   15   21 1
  29   16   17 1
  30   18   19 2
  31   18   41 1
  32   19   20 1
  33   19   22 1
  34   20   21 2
  35   20   42 1
  36   21   43 1
  37   22   25 2
  38   22   26 am
  39   23   24 1
  40   24   44 1
  41   24   45 1
  42   24   46 1
  43   26   27 1
  44   26   47 1
  45   27   28 ar
  46   27   29 ar
  47   28   32 ar
  48   28   48 1
  49   29   30 ar
  50   29   49 1
  51   30   31 ar
  52   30   50 1
  53   31   32 ar
  54   31   33 1
  55   32   51 1

#	End of record

