#	Name: ASD06390017
#	Creating user name:	WinNT
#	Creation time:	15. 06. 2019 21:06

#	Modifying user name:	WinNT
#	Modification time:	15. 06. 2019 21:06

#	Program:	/corina/corina34_cracker 3.40 0067  02.08.2006

@<TRIPOS>MOLECULE
ASD06390017
  79   84    0    0    0
SMALL
NO_CHARGES


@<TRIPOS>ATOM
   1 C1             0.1050     1.5328     0.0758 C.3     
   2 C2             0.0018    -0.0049     0.0015 C.3     
   3 C3             1.4454    -0.4446    -0.0467 C.2     
   4 N4             2.2283     0.6182    -0.0221 N.2     
   5 C5             1.6035     1.7773     0.0236 C.2     
   6 C6             5.5112     4.3677    -0.0610 C.2     
   7 C7             4.1369     4.5165    -0.0747 C.2     
   8 C8             3.5639     3.2367    -0.0200 C.2     
   9 N9             4.5766     2.3095     0.0107 N.pl3   
  10 C10            5.7872     2.9696     0.0069 C.2     
  11 C11            2.1824     3.0260     0.0111 C.2     
  12 C12            8.6790    -0.7233     0.2590 C.2     
  13 C13            8.7386     0.6299     0.2883 C.2     
  14 C14            7.4051     1.1070     0.1310 C.2     
  15 N15            6.5952     0.0549     0.0384 N.2     
  16 C16            7.3161    -1.0723     0.0831 C.2     
  17 C17            7.0686     2.4687     0.0703 C.2     
  18 C18            3.3951    -3.5120    -0.2370 C.2     
  19 C19            4.7660    -3.7928    -0.2194 C.2     
  20 C20            5.4398    -2.5793    -0.1031 C.2     
  21 N21            4.5028    -1.5585    -0.0692 N.pl3   
  22 C22            3.2475    -2.1134    -0.1339 C.2     
  23 C23            1.8971    -1.7495    -0.1252 C.2     
  24 C24            6.8154    -2.3842    -0.0216 C.2     
  25 C25            3.3868     5.8221    -0.1373 C.3     
  26 C26            6.5073     5.4529    -0.1082 C.2     
  27 C27            7.4975     5.4851     0.7777 C.2     
  28 C28           -0.5917     2.1810    -1.1223 C.3     
  29 C29           -0.6919    -0.5613     1.2465 C.3     
  30 C30           -2.1461    -0.0868     1.2751 C.3     
  31 C31           -2.8629    -0.7334     2.4323 C.2     
  32 O32           -4.1586    -0.4626     2.6551 O.3     
  33 O33           -2.2713    -1.4956     3.1596 O.2     
  34 C34            1.0676    -3.0055    -0.2156 C.3     
  35 C35            2.0696    -4.1338    -0.3277 C.2     
  36 O36            0.2327    -2.9664    -1.3747 O.3     
  37 O37           -1.0312    -3.7000    -1.2256 O.3     
  38 C38           -1.8661    -3.6609    -2.3846 C.3     
  39 C39            5.3976    -5.1582    -0.3092 C.3     
  40 C40            9.8398    -1.6756     0.3871 C.3     
  41 C41            9.9777    -2.1185     1.8451 C.3     
  42 C42            9.9783     1.4701     0.4569 C.3     
  43 O43            1.8259    -5.3146    -0.4649 O.2     
  44 H44           -0.3141     1.9030     1.0115 H       
  45 H45           -0.5251    -0.3126    -0.9017 H       
  46 H46            4.4592     1.3468     0.0318 H       
  47 H47            1.5251     3.8961     0.0260 H       
  48 H48            7.8867     3.1954     0.0723 H       
  49 H49            4.7002    -0.6107    -0.0095 H       
  50 H50            7.4930    -3.2235    -0.0442 H       
  51 H51            3.2109     6.0904    -1.1791 H       
  52 H52            2.4316     5.7174     0.3772 H       
  53 H53            3.9754     6.6028     0.3445 H       
  54 H54            6.4326     6.2220    -0.8628 H       
  55 H55            8.2274     6.2804     0.7431 H       
  56 H56            7.5722     4.7161     1.5323 H       
  57 H57           -1.6445     1.8988    -1.1268 H       
  58 H58           -0.5065     3.2652    -1.0493 H       
  59 H59           -0.1204     1.8409    -2.0444 H       
  60 H60           -0.6656    -1.6507     1.2208 H       
  61 H61           -0.1763    -0.2064     2.1389 H       
  62 H62           -2.1726     0.9967     1.3910 H       
  63 H63           -2.6373    -0.3645     0.3425 H       
  64 H64           -4.5754    -0.9013     3.4094 H       
  65 H65            0.4624    -3.1248     0.6830 H       
  66 H66           -2.1200    -2.6262    -2.6148 H       
  67 H67           -1.3362    -4.1015    -3.2291 H       
  68 H68           -2.7790    -4.2252    -2.1941 H       
  69 H69            5.5797    -5.4062    -1.3549 H       
  70 H70            6.3426    -5.1578     0.2340 H       
  71 H71            4.7274    -5.8980     0.1283 H       
  72 H72            9.6653    -2.5480    -0.2427 H       
  73 H73           10.7558    -1.1766     0.0707 H       
  74 H74           10.1523    -1.2461     2.4748 H       
  75 H75            9.0618    -2.6175     2.1614 H       
  76 H76           10.8174    -2.8073     1.9377 H       
  77 H77           10.4047     1.6891    -0.5220 H       
  78 H78            9.7195     2.4031     0.9575 H       
  79 H79           10.7073     0.9257     1.0572 H       
@<TRIPOS>BOND
   1    1    2 1
   2    1    5 1
   3    1   28 1
   4    1   44 1
   5    2    3 1
   6    2   29 1
   7    2   45 1
   8    3    4 2
   9    3   23 1
  10    4    5 1
  11    5   11 2
  12    6    7 1
  13    6   10 2
  14    6   26 1
  15    7    8 2
  16    7   25 1
  17    8    9 1
  18    8   11 1
  19    9   10 1
  20    9   46 1
  21   10   17 1
  22   11   47 1
  23   12   13 2
  24   12   16 1
  25   12   40 1
  26   13   14 1
  27   13   42 1
  28   14   15 1
  29   14   17 2
  30   15   16 2
  31   16   24 1
  32   17   48 1
  33   18   19 2
  34   18   22 1
  35   18   35 1
  36   19   20 1
  37   19   39 1
  38   20   21 1
  39   20   24 2
  40   21   22 1
  41   21   49 1
  42   22   23 2
  43   23   34 1
  44   24   50 1
  45   25   51 1
  46   25   52 1
  47   25   53 1
  48   26   27 2
  49   26   54 1
  50   27   55 1
  51   27   56 1
  52   28   57 1
  53   28   58 1
  54   28   59 1
  55   29   30 1
  56   29   60 1
  57   29   61 1
  58   30   31 1
  59   30   62 1
  60   30   63 1
  61   31   32 1
  62   31   33 2
  63   32   64 1
  64   34   35 1
  65   34   36 1
  66   34   65 1
  67   35   43 2
  68   36   37 1
  69   37   38 1
  70   38   66 1
  71   38   67 1
  72   38   68 1
  73   39   69 1
  74   39   70 1
  75   39   71 1
  76   40   41 1
  77   40   72 1
  78   40   73 1
  79   41   74 1
  80   41   75 1
  81   41   76 1
  82   42   77 1
  83   42   78 1
  84   42   79 1

#	End of record

