#	Name: ASD01884626
#	Creating user name:	WinNT
#	Creation time:	15. 06. 2019 19:48

#	Modifying user name:	WinNT
#	Modification time:	15. 06. 2019 19:48

#	Program:	/corina/corina34_cracker 3.40 0067  02.08.2006

@<TRIPOS>MOLECULE
ASD01884626
  36   38    0    0    0
SMALL
NO_CHARGES


@<TRIPOS>ATOM
   1 C1            -0.0164     1.3575     0.0095 C.2     
   2 C2             0.0021    -0.0041     0.0020 C.2     
   3 C3             1.2440    -0.6750    -0.0134 C.2     
   4 C4             2.4024     0.0466    -0.0206 C.2     
   5 N5             2.3701     1.4021    -0.0126 N.am    
   6 C6             1.1988     2.0651     0.0017 C.2     
   7 O7             1.1914     3.2855     0.0083 O.2     
   8 C8             3.6267     2.1551    -0.0196 C.3     
   9 C9             1.2899    -2.1583    -0.0214 C.ar    
  10 C10            4.0449     2.4214    -1.4427 C.ar    
  11 C11            3.4611     3.4561    -2.1536 C.ar    
  12 C12            3.8458     3.7001    -3.4611 C.ar    
  13 C13            4.8128     2.9100    -4.0554 C.ar    
  14 C14            5.3953     1.8762    -3.3433 C.ar    
  15 C15            5.0153     1.6363    -2.0364 C.ar    
  16 Cl16           5.2956     3.2147    -5.6948 Cl      
  17 F17            2.5162     4.2269    -1.5721 F       
  18 C18            1.8318    -2.8459     1.0638 C.ar    
  19 C19            1.8759    -4.2268     1.0593 C.ar    
  20 C20            1.3838    -4.9353    -0.0179 C.ar    
  21 C21            0.8378    -4.2582    -1.1113 C.ar    
  22 C22            0.7869    -2.8649    -1.1089 C.ar    
  23 C23            0.3276    -4.9934    -2.2293 C.1     
  24 N24           -0.0770    -5.5766    -3.1162 N.1     
  25 H25           -0.9563     1.8894     0.0169 H       
  26 H26           -0.9217    -0.5636     0.0082 H       
  27 H27            3.3528    -0.4663    -0.0325 H       
  28 H28            3.4856     3.1023     0.5010 H       
  29 H29            4.4004     1.5755     0.4840 H       
  30 H30            3.3908     4.5067    -4.0167 H       
  31 H31            6.1504     1.2594    -3.8077 H       
  32 H32            5.4704     0.8292    -1.4815 H       
  33 H33            2.2186    -2.2975     1.9100 H       
  34 H34            2.2975    -4.7540     1.9024 H       
  35 H35            1.4212    -6.0146    -0.0160 H       
  36 H36            0.3656    -2.3362    -1.9511 H       
@<TRIPOS>BOND
   1    1    2 2
   2    1    6 1
   3    1   25 1
   4    2    3 1
   5    2   26 1
   6    3    4 2
   7    3    9 1
   8    4    5 1
   9    4   27 1
  10    5    6 am
  11    5    8 1
  12    6    7 2
  13    8   10 1
  14    8   28 1
  15    8   29 1
  16    9   18 ar
  17    9   22 ar
  18   10   11 ar
  19   10   15 ar
  20   11   12 ar
  21   11   17 1
  22   12   13 ar
  23   12   30 1
  24   13   14 ar
  25   13   16 1
  26   14   15 ar
  27   14   31 1
  28   15   32 1
  29   18   19 ar
  30   18   33 1
  31   19   20 ar
  32   19   34 1
  33   20   21 ar
  34   20   35 1
  35   21   22 ar
  36   21   23 1
  37   22   36 1
  38   23   24 3

#	End of record

