#	Name: ASD01820224
#	Creating user name:	WinNT
#	Creation time:	15. 06. 2019 19:36

#	Modifying user name:	WinNT
#	Modification time:	15. 06. 2019 19:36

#	Program:	/corina/corina34_cracker 3.40 0067  02.08.2006

@<TRIPOS>MOLECULE
ASD01820224
 100  112    0    0    0
SMALL
NO_CHARGES


@<TRIPOS>ATOM
   1 C1            -0.0166     1.3761     0.0096 C.ar    
   2 C2             0.0021    -0.0041     0.0020 C.ar    
   3 C3             1.1814    -0.7299    -0.0173 C.ar    
   4 C4             2.3765    -0.0113    -0.0162 C.ar    
   5 C5             2.3568     1.4057    -0.0021 C.ar    
   6 C6             1.1668     2.1044     0.0022 C.ar    
   7 N7             3.6796    -0.4524    -0.0109 N.3     
   8 C8             4.5543     0.6156    -0.4804 C.3     
   9 C9             3.7689     1.8506     0.0339 C.3     
  10 C10            4.5062     0.5425    -2.0092 C.3     
  11 C11            4.9640     1.8690    -2.6088 C.3     
  12 C12            4.0319     2.9988    -2.1975 C.3     
  13 C13            4.1155     3.1307    -0.6965 C.3     
  14 C14            4.0179    -1.7906     0.1754 C.3     
  15 C15            5.4369    -2.3302     0.0477 C.3     
  16 C16            6.4742    -1.2880    -0.3567 C.3     
  17 N17            6.4638    -1.0907    -1.8029 N.3     
  18 C18            5.4030    -0.5568    -2.5605 C.3     
  19 C19            5.7898    -2.8723     1.4399 C.3     
  20 C20            7.1291    -3.5908     1.4206 C.3     
  21 C21            8.1868    -2.5618     1.0944 C.3     
  22 C22            7.9210    -1.8401    -0.2079 C.3     
  23 C23            8.1195    -2.6301    -1.4494 C.ar    
  24 C24            7.1962    -2.1150    -2.3886 C.ar    
  25 C25            6.3529     2.1103    -2.0608 C.2     
  26 C26            7.3049     1.5294    -2.7413 C.2     
  27 C27            6.5775     2.8536    -0.7967 C.3     
  28 N28            5.4354     3.5280    -0.1965 N.4     
  29 C29            7.0129     0.6685    -3.9056 C.3     
  30 C30            5.8543    -1.6745     2.3609 C.2     
  31 C31            4.7139    -1.2986     2.8811 C.2     
  32 C32            7.1116    -0.9212     2.5945 C.3     
  33 C33            3.4445    -1.9649     2.5413 C.3     
  34 N34            8.3462    -1.5068     2.1003 N.4     
  35 C35            8.9789    -3.6565    -1.7727 C.ar    
  36 C36            8.9134    -4.1731    -3.0579 C.ar    
  37 C37            8.0140    -3.6748    -3.9760 C.ar    
  38 C38            7.1370    -2.6444    -3.6724 C.ar    
  39 H39            3.4028     3.8959    -0.3840 H       
  40 H40            4.9964     1.8020    -3.6943 H       
  41 H41            9.1443    -3.0779     1.0049 H       
  42 H42            5.0134    -3.5599     1.7704 H       
  43 C43            9.0516    -0.3986     1.3886 C.3     
  44 C44            8.9010    -0.6484    -0.1287 C.3     
  45 H45            6.4315    -0.4069     0.2820 H       
  46 H46            5.5602     0.6926    -0.1045 H       
  47 C47            4.2397     2.1778     1.4740 C.3     
  48 C48            5.4415     3.1227     1.2443 C.3     
  49 O49            3.2918    -2.4401     1.2281 O.3     
  50 H50            5.4539    -3.1631    -0.6633 H       
  51 H51            3.4694     0.3547    -2.3196 H       
  52 O52            5.8807    -0.1651    -3.8690 O.3     
  53 C53            9.1669    -1.9842     3.2177 C.3     
  54 C54            5.5968     4.9824    -0.3022 C.3     
  55 C55            9.4837    -0.8324     4.1364 C.2     
  56 C56            9.1896    -0.9108     5.4105 C.2     
  57 C57            6.9565     5.3758     0.2148 C.2     
  58 C58            7.7696     6.0697    -0.5425 C.2     
  59 H59           -0.9636     1.8973     0.0326 H       
  60 H60           -0.9371    -0.5359     0.0163 H       
  61 H61            1.1724    -1.8098    -0.0265 H       
  62 H62            1.1598     3.1850     0.0060 H       
  63 H63            4.3387     3.9279    -2.6744 H       
  64 H64            3.0077     2.7579    -2.4886 H       
  65 H65            3.5226    -2.2599    -0.7354 H       
  66 H66            4.7370    -1.4172    -2.7579 H       
  67 H67            7.3284    -4.0408     2.3916 H       
  68 H68            7.1230    -4.3654     0.6516 H       
  69 H69            8.3294     1.6806    -2.4535 H       
  70 H70            6.9894     2.1556    -0.0720 H       
  71 H71            7.3409     3.6100    -0.9907 H       
  72 H72            6.9124     1.3220    -4.7734 H       
  73 H73            7.8856     0.0404    -4.0782 H       
  74 H74            4.6987    -0.4819     3.5807 H       
  75 H75            6.9922     0.0637     2.1512 H       
  76 H76            7.2173    -0.7856     3.6718 H       
  77 H77            3.3286    -2.8126     3.2191 H       
  78 H78            2.6344    -1.2700     2.7497 H       
  79 H79            9.6814    -4.0412    -1.0455 H       
  80 H80            9.5825    -4.9751    -3.3443 H       
  81 H81            7.9960    -4.0972    -4.9703 H       
  82 H82            6.4398    -2.2736    -4.4090 H       
  83 H83            8.6141     0.5629     1.6535 H       
  84 H84           10.1079    -0.4021     1.6610 H       
  85 H85            9.8634    -0.9139    -0.5717 H       
  86 H86            8.4819     0.2277    -0.6255 H       
  87 H87            3.4517     2.6863     2.0315 H       
  88 H88            4.5549     1.2717     1.9922 H       
  89 H89            6.3698     2.6122     1.4954 H       
  90 H90            5.3361     4.0092     1.8731 H       
  91 H91            8.6203    -2.7492     3.7692 H       
  92 H92           10.0946    -2.4073     2.8323 H       
  93 H93            5.5037     5.2834    -1.3456 H       
  94 H94            4.8262     5.4773     0.2889 H       
  95 H95            9.9531     0.0577     3.7444 H       
  96 H96            9.4166    -0.0854     6.0689 H       
  97 H97            8.7201    -1.8010     5.8026 H       
  98 H98            7.2607     5.0857     1.2096 H       
  99 H99            8.7441     6.3516    -0.1720 H       
 100 H100           7.4654     6.3598    -1.5374 H       
@<TRIPOS>BOND
   1    1    2 ar
   2    1    6 ar
   3    1   59 1
   4    2    3 ar
   5    2   60 1
   6    3    4 ar
   7    3   61 1
   8    4    5 ar
   9    4    7 1
  10    5    6 ar
  11    5    9 1
  12    6   62 1
  13    7    8 1
  14    7   14 1
  15    8    9 1
  16    8   46 1
  17    8   10 1
  18    9   13 1
  19    9   47 1
  20   10   51 1
  21   10   11 1
  22   10   18 1
  23   11   12 1
  24   11   25 1
  25   11   40 1
  26   12   13 1
  27   12   63 1
  28   12   64 1
  29   13   28 1
  30   13   39 1
  31   14   15 1
  32   14   49 1
  33   14   65 1
  34   15   16 1
  35   15   50 1
  36   15   19 1
  37   16   17 1
  38   16   22 1
  39   16   45 1
  40   17   18 1
  41   17   24 1
  42   18   52 1
  43   18   66 1
  44   19   20 1
  45   19   30 1
  46   19   42 1
  47   20   21 1
  48   20   67 1
  49   20   68 1
  50   21   22 1
  51   21   41 1
  52   21   34 1
  53   22   23 1
  54   22   44 1
  55   23   24 ar
  56   23   35 ar
  57   24   38 ar
  58   25   26 2
  59   25   27 1
  60   26   29 1
  61   26   69 1
  62   27   28 1
  63   27   70 1
  64   27   71 1
  65   28   48 1
  66   28   54 1
  67   29   52 1
  68   29   72 1
  69   29   73 1
  70   30   31 2
  71   30   32 1
  72   31   33 1
  73   31   74 1
  74   32   34 1
  75   32   75 1
  76   32   76 1
  77   33   49 1
  78   33   77 1
  79   33   78 1
  80   34   43 1
  81   34   53 1
  82   35   36 ar
  83   35   79 1
  84   36   37 ar
  85   36   80 1
  86   37   38 ar
  87   37   81 1
  88   38   82 1
  89   43   44 1
  90   43   83 1
  91   43   84 1
  92   44   85 1
  93   44   86 1
  94   47   48 1
  95   47   87 1
  96   47   88 1
  97   48   89 1
  98   48   90 1
  99   53   55 1
 100   53   91 1
 101   53   92 1
 102   54   57 1
 103   54   93 1
 104   54   94 1
 105   55   56 2
 106   55   95 1
 107   56   96 1
 108   56   97 1
 109   57   58 2
 110   57   98 1
 111   58   99 1
 112   58  100 1

#	End of record

