#	Name: ASD05130009
#	Creating user name:	WinNT
#	Creation time:	15. 06. 2019 20:56

#	Modifying user name:	WinNT
#	Modification time:	15. 06. 2019 20:56

#	Program:	/corina/corina34_cracker 3.40 0067  02.08.2006

@<TRIPOS>MOLECULE
ASD05130009
  64   67    0    0    0
SMALL
NO_CHARGES


@<TRIPOS>ATOM
   1 N1            -2.2275     1.3410    -0.0088 N.am    
   2 C2            -2.2226    -0.0067    -0.0162 C.2     
   3 O3            -3.2732    -0.6185    -0.0132 O.2     
   4 N4            -1.0529    -0.6763    -0.0270 N.am    
   5 C5            -3.4988     2.0688     0.0029 C.3     
   6 C6            -0.9614     2.0781    -0.0064 C.3     
   7 N7             1.3181    -4.8568    -0.0518 N.am    
   8 C8             1.3029    -6.2002     0.0521 C.2     
   9 C9             0.0418    -6.9082     0.2846 C.2     
  10 C10           -1.1212    -6.1964     0.3961 C.2     
  11 C11           -1.0787    -4.7861     0.2838 C.ar    
  12 C12           -2.2443    -4.0176     0.3924 C.ar    
  13 N13           -2.1871    -2.7081     0.2862 N.ar    
  14 C14           -1.0447    -2.0641     0.0755 C.ar    
  15 C15            0.1559    -2.7472    -0.0448 C.ar    
  16 C16            0.1530    -4.1340     0.0592 C.ar    
  17 O17            2.3418    -6.8283    -0.0481 O.2     
  18 C18            0.0257    -8.3855     0.3978 C.ar    
  19 C19           -0.1274    -8.9894     1.6458 C.ar    
  20 C20           -0.1417   -10.3656     1.7500 C.ar    
  21 C21           -0.0048   -11.1505     0.6183 C.ar    
  22 C22            0.1479   -10.5560    -0.6304 C.ar    
  23 C23            0.1579    -9.1750    -0.7431 C.ar    
  24 N24            0.2867   -11.3533    -1.7738 N.am    
  25 C25           -0.2439   -10.9498    -2.9451 C.2     
  26 O26           -0.7706    -9.8572    -3.0297 O.2     
  27 N27           -0.1907   -11.7575    -4.0228 N.am    
  28 C28           -0.6551   -11.3023    -5.2619 C.ar    
  29 C29           -0.0222   -11.7018    -6.4316 C.ar    
  30 C30           -0.4829   -11.2508    -7.6530 C.ar    
  31 C31           -1.5732   -10.4023    -7.7119 C.ar    
  32 C32           -2.2053   -10.0023    -6.5489 C.ar    
  33 C33           -1.7533   -10.4547    -5.3247 C.ar    
  34 C34           -0.2769    -8.1389     2.8809 C.3     
  35 F35           -0.0191   -12.4971     0.7263 F       
  36 C36            2.5866    -4.1600    -0.2788 C.3     
  37 C37            2.8326    -4.0254    -1.7829 C.3     
  38 H38           -0.2169    -0.1908    -0.1063 H       
  39 H39           -3.8079     2.2437     1.0334 H       
  40 H40           -3.3751     3.0245    -0.5065 H       
  41 H41           -4.2595     1.4797    -0.5095 H       
  42 H42           -0.6488     2.2666    -1.0335 H       
  43 H43           -1.0946     3.0272     0.5128 H       
  44 H44           -0.1990     1.4890     0.5032 H       
  45 H45           -2.0591    -6.7038     0.5672 H       
  46 H46           -3.1941    -4.5023     0.5638 H       
  47 H47            1.0777    -2.2115    -0.2168 H       
  48 H48           -0.2597   -10.8312     2.7173 H       
  49 H49            0.2722    -8.7116    -1.7119 H       
  50 H50            0.7647   -12.1958    -1.7224 H       
  51 H51            0.1694   -12.6543    -3.9394 H       
  52 H52            0.8296   -12.3642    -6.3863 H       
  53 H53            0.0091   -11.5608    -8.5631 H       
  54 H54           -1.9316   -10.0510    -8.6682 H       
  55 H55           -3.0562    -9.3389    -6.5981 H       
  56 H56           -2.2506   -10.1461    -4.4171 H       
  57 H57           -1.3330    -7.9324     3.0542 H       
  58 H58            0.1353    -8.6693     3.7394 H       
  59 H59            0.2591    -7.1999     2.7425 H       
  60 H60            2.5424    -3.1687     0.1722 H       
  61 H61            3.3995    -4.7287     0.1728 H       
  62 H62            2.8768    -5.0167    -2.2340 H       
  63 H63            2.0197    -3.4567    -2.2345 H       
  64 H64            3.7764    -3.5069    -1.9518 H       
@<TRIPOS>BOND
   1    1    2 am
   2    1    5 1
   3    1    6 1
   4    2    3 2
   5    2    4 am
   6    4   14 1
   7    4   38 1
   8    5   39 1
   9    5   40 1
  10    5   41 1
  11    6   42 1
  12    6   43 1
  13    6   44 1
  14    7    8 am
  15    7   16 1
  16    7   36 1
  17    8    9 1
  18    8   17 2
  19    9   10 2
  20    9   18 1
  21   10   11 1
  22   10   45 1
  23   11   12 ar
  24   11   16 ar
  25   12   13 ar
  26   12   46 1
  27   13   14 ar
  28   14   15 ar
  29   15   16 ar
  30   15   47 1
  31   18   19 ar
  32   18   23 ar
  33   19   20 ar
  34   19   34 1
  35   20   21 ar
  36   20   48 1
  37   21   22 ar
  38   21   35 1
  39   22   23 ar
  40   22   24 1
  41   23   49 1
  42   24   25 am
  43   24   50 1
  44   25   26 2
  45   25   27 am
  46   27   28 1
  47   27   51 1
  48   28   29 ar
  49   28   33 ar
  50   29   30 ar
  51   29   52 1
  52   30   31 ar
  53   30   53 1
  54   31   32 ar
  55   31   54 1
  56   32   33 ar
  57   32   55 1
  58   33   56 1
  59   34   57 1
  60   34   58 1
  61   34   59 1
  62   36   37 1
  63   36   60 1
  64   36   61 1
  65   37   62 1
  66   37   63 1
  67   37   64 1

#	End of record

