#	Name: ASD02039124
#	Creating user name:	WinNT
#	Creation time:	15. 06. 2019 20:17

#	Modifying user name:	WinNT
#	Modification time:	15. 06. 2019 20:17

#	Program:	/corina/corina34_cracker 3.40 0067  02.08.2006

@<TRIPOS>MOLECULE
ASD02039124
  38   41    0    0    0
SMALL
NO_CHARGES


@<TRIPOS>ATOM
   1 N1             0.0233     1.2845    -0.3601 N.2     
   2 N2             0.0397    -0.0019    -0.3611 N.2     
   3 C3             1.2243     1.7332    -0.0872 C.2     
   4 O4             2.0203     0.6621     0.0886 O.3     
   5 C5             1.2410    -0.4221    -0.0913 C.2     
   6 N6             1.6033     3.0608     0.0028 N.pl3   
   7 C7             0.6407     4.0701    -0.0881 C.ar    
   8 C8             1.6809    -1.8603     0.0028 C.3     
   9 C9             2.1406    -2.3347    -1.3517 C.ar    
  10 C10           -0.6621     3.8293     0.3296 C.ar    
  11 C11            0.9860     5.3182    -0.5909 C.ar    
  12 C12            0.0326     6.3134    -0.6788 C.ar    
  13 C13           -1.2646     6.0687    -0.2666 C.ar    
  14 C14            3.4505    -2.1935    -1.7087 C.ar    
  15 C15            1.2284    -2.9168    -2.2229 C.ar    
  16 C16            1.6201    -3.3554    -3.4561 C.ar    
  17 C17            2.9487    -3.2199    -3.8501 C.ar    
  18 C18            3.8762    -2.6347    -2.9663 C.ar    
  19 C19           -1.6106     4.8289     0.2389 C.ar    
  20 N20            3.6404    -3.5491    -4.9865 N.pl3   
  21 N21            4.9795    -3.1763    -4.8308 N.2     
  22 C22            5.1605    -2.6368    -3.6593 C.2     
  23 C23           -2.3022     7.1573    -0.3636 C.3     
  24 F24           -2.9337     7.0899    -1.6102 F       
  25 F25           -3.2517     6.9882     0.6499 F       
  26 F26           -1.6845     8.4044    -0.2206 F       
  27 H27            2.5371     3.2911     0.1289 H       
  28 H28            2.5021    -1.9432     0.7148 H       
  29 H29            0.8455    -2.4746     0.3387 H       
  30 H30           -0.9330     2.8612     0.7245 H       
  31 H31            1.9990     5.5101    -0.9123 H       
  32 H32            0.3004     7.2839    -1.0697 H       
  33 H33            4.1543    -1.7433    -1.0243 H       
  34 H34            0.1969    -3.0243    -1.9214 H       
  35 H35            0.9009    -3.8065    -4.1237 H       
  36 H36           -2.6245     4.6411     0.5600 H       
  37 H37            3.2620    -3.9730    -5.7727 H       
  38 H38            6.0940    -2.2573    -3.2708 H       
@<TRIPOS>BOND
   1    1    2 1
   2    1    3 2
   3    2    5 2
   4    3    4 1
   5    3    6 1
   6    4    5 1
   7    5    8 1
   8    6    7 1
   9    6   27 1
  10    7   10 ar
  11    7   11 ar
  12    8    9 1
  13    8   28 1
  14    8   29 1
  15    9   14 ar
  16    9   15 ar
  17   10   19 ar
  18   10   30 1
  19   11   12 ar
  20   11   31 1
  21   12   13 ar
  22   12   32 1
  23   13   19 ar
  24   13   23 1
  25   14   18 ar
  26   14   33 1
  27   15   16 ar
  28   15   34 1
  29   16   17 ar
  30   16   35 1
  31   17   18 ar
  32   17   20 1
  33   18   22 1
  34   19   36 1
  35   20   21 1
  36   20   37 1
  37   21   22 2
  38   22   38 1
  39   23   24 1
  40   23   25 1
  41   23   26 1

#	End of record

