#	Name: ASD01901113
#	Creating user name:	WinNT
#	Creation time:	15. 06. 2019 19:53

#	Modifying user name:	WinNT
#	Modification time:	15. 06. 2019 19:53

#	Program:	/corina/corina34_cracker 3.40 0067  02.08.2006

@<TRIPOS>MOLECULE
ASD01901113
  54   58    0    0    0
SMALL
NO_CHARGES


@<TRIPOS>ATOM
   1 C1             2.8801     0.7704     1.1305 C.ar    
   2 C2             3.4351    -0.4917     1.1059 C.ar    
   3 C3             4.7768    -0.6641     0.7978 C.ar    
   4 C4             5.5794     0.4267     0.5184 C.ar    
   5 C5             5.0384     1.7005     0.5448 C.ar    
   6 C6             3.6753     1.8774     0.8423 C.ar    
   7 N7             5.8097     2.8290     0.2900 N.pl3   
   8 C8             5.1612     4.0155    -0.2796 C.3     
   9 N9             3.8811     4.2622     0.3851 N.am    
  10 C10            3.1283     3.2450     0.8497 C.2     
  11 C11            3.4303     5.5787     0.5423 C.ar    
  12 C12            3.9676     6.3826     1.5389 C.ar    
  13 C13            3.5226     7.6807     1.6933 C.ar    
  14 C14            2.5386     8.1814     0.8534 C.ar    
  15 C15            2.0013     7.3789    -0.1424 C.ar    
  16 C16            2.4497     6.0827    -0.3020 C.ar    
  17 O17            2.0068     3.4547     1.2711 O.2     
  18 O18            2.1002     9.4594     1.0067 O.3     
  19 C19            6.0749     5.2301    -0.0912 C.3     
  20 C20            4.9250     3.7937    -1.7762 C.3     
  21 C21            4.3113     5.0578    -2.3827 C.3     
  22 N22            5.2194     6.1927    -2.1747 N.3     
  23 C23            5.4271     6.4532    -0.7446 C.3     
  24 C24            4.7271     7.3938    -2.8625 C.3     
  25 C25            5.6264     8.5600    -2.5427 C.2     
  26 C26            1.1026     9.9172     0.0917 C.3     
  27 Br27           5.5141    -2.4050     0.7604 Br      
  28 F28           -0.0478     9.1322     0.2249 F       
  29 F29            0.7911    11.2522     0.3708 F       
  30 F30            1.5877     9.8152    -1.2166 F       
  31 C31            6.6906     8.9487    -3.2505 C.2     
  32 N32            7.3163    10.0021    -2.7636 N.2     
  33 C33            6.8375    10.5230    -1.6836 C.2     
  34 S34            5.4551     9.6558    -1.1737 S.3     
  35 Br35           7.5567    12.0313    -0.7983 Br      
  36 H36            1.8343     0.8995     1.3675 H       
  37 H37            2.8212    -1.3519     1.3282 H       
  38 H38            6.6235     0.2855     0.2810 H       
  39 H39            6.7598     2.8319     0.4857 H       
  40 H40            4.7332     5.9927     2.1933 H       
  41 H41            3.9404     8.3060     2.4684 H       
  42 H42            1.2350     7.7694    -0.7956 H       
  43 H43            2.0345     5.4594    -1.0801 H       
  44 H44            6.2163     5.4179     0.9732 H       
  45 H45            7.0401     5.0358    -0.5589 H       
  46 H46            5.8744     3.5785    -2.2666 H       
  47 H47            4.2435     2.9547    -1.9168 H       
  48 H48            4.1548     4.9089    -3.4510 H       
  49 H49            3.3555     5.2644    -1.9011 H       
  50 H50            4.4671     6.6534    -0.2687 H       
  51 H51            6.0796     7.3179    -0.6238 H       
  52 H52            4.7249     7.2210    -3.9387 H       
  53 H53            3.7134     7.6142    -2.5279 H       
  54 H54            7.0124     8.4412    -4.1479 H       
@<TRIPOS>BOND
   1    1    2 ar
   2    1    6 ar
   3    1   36 1
   4    2    3 ar
   5    2   37 1
   6    3    4 ar
   7    3   27 1
   8    4    5 ar
   9    4   38 1
  10    5    7 1
  11    5    6 ar
  12    6   10 1
  13    7    8 1
  14    7   39 1
  15    8    9 1
  16    8   20 1
  17    8   19 1
  18    9   10 am
  19    9   11 1
  20   10   17 2
  21   11   12 ar
  22   11   16 ar
  23   12   13 ar
  24   12   40 1
  25   13   14 ar
  26   13   41 1
  27   14   15 ar
  28   14   18 1
  29   15   16 ar
  30   15   42 1
  31   16   43 1
  32   18   26 1
  33   19   23 1
  34   19   44 1
  35   19   45 1
  36   20   21 1
  37   20   46 1
  38   20   47 1
  39   21   22 1
  40   21   48 1
  41   21   49 1
  42   22   23 1
  43   22   24 1
  44   23   50 1
  45   23   51 1
  46   24   25 1
  47   24   52 1
  48   24   53 1
  49   25   31 2
  50   25   34 1
  51   26   28 1
  52   26   29 1
  53   26   30 1
  54   31   32 1
  55   31   54 1
  56   32   33 2
  57   33   34 1
  58   33   35 1

#	End of record

