#	Name: ASD01912692
#	Creating user name:	WinNT
#	Creation time:	15. 06. 2019 20:00

#	Modifying user name:	WinNT
#	Modification time:	15. 06. 2019 20:00

#	Program:	/corina/corina34_cracker 3.40 0067  02.08.2006

@<TRIPOS>MOLECULE
ASD01912692
  38   41    0    0    0
SMALL
NO_CHARGES


@<TRIPOS>ATOM
   1 C1            -0.0166     1.3653     0.0659 C.2     
   2 N2             0.0021    -0.0039    -0.0021 N.pl3   
   3 C3            -1.2022    -0.6904    -0.0526 C.2     
   4 C4            -2.3628    -0.0483    -0.0362 C.2     
   5 N5            -2.4359     1.3308     0.0312 N.am    
   6 C6            -1.3022     2.0650     0.0893 C.2     
   7 C7             1.3012     1.7808     0.1039 C.2     
   8 C8             2.0549     0.6092     0.0554 C.2     
   9 N9             1.2244    -0.4046    -0.0061 N.2     
  10 O10           -1.3492     3.2804     0.1490 O.2     
  11 C11           -3.6790     1.9641     0.0456 C.ar    
  12 C12            3.5593     0.5223     0.0704 C.3     
  13 O13            4.1117     1.8382     0.1428 O.3     
  14 C14            5.4669     1.9381     0.1651 C.ar    
  15 C15            6.0706     3.1852     0.2348 C.ar    
  16 C16            7.4483     3.2840     0.2573 C.ar    
  17 C17            8.2254     2.1414     0.2105 C.ar    
  18 C18            7.6261     0.8973     0.1405 C.ar    
  19 C19            6.2487     0.7928     0.1240 C.ar    
  20 C20           -4.3301     2.1770     1.2563 C.ar    
  21 C21           -5.5635     2.8072     1.2557 C.ar    
  22 C22           -5.3986     2.9643    -1.1234 C.ar    
  23 N23           -4.2257     2.3617    -1.0924 N.ar    
  24 C24           -6.1036     3.2034     0.0402 C.ar    
  25 Cl25          -3.6071     1.6594     2.7473 Cl      
  26 H26           -1.1947    -1.7690    -0.1066 H       
  27 H27           -3.2782    -0.6199    -0.0770 H       
  28 H28            1.6681     2.7951     0.1593 H       
  29 H29            3.8813    -0.0551     0.9370 H       
  30 H30            3.9041     0.0331    -0.8407 H       
  31 H31            5.4640     4.0780     0.2710 H       
  32 H32            7.9188     4.2547     0.3112 H       
  33 H33            9.3024     2.2207     0.2282 H       
  34 H34            8.2353     0.0063     0.1033 H       
  35 H35            5.7811    -0.1792     0.0694 H       
  36 H36           -6.0929     2.9859     2.1799 H       
  37 H37           -5.8133     3.2747    -2.0711 H       
  38 H38           -7.0636     3.6970     0.0048 H       
@<TRIPOS>BOND
   1    1    2 1
   2    1    7 2
   3    1    6 1
   4    2    3 1
   5    2    9 1
   6    3    4 2
   7    3   26 1
   8    4    5 1
   9    4   27 1
  10    5    6 am
  11    5   11 1
  12    6   10 2
  13    7    8 1
  14    7   28 1
  15    8    9 2
  16    8   12 1
  17   11   20 ar
  18   11   23 ar
  19   12   13 1
  20   12   29 1
  21   12   30 1
  22   13   14 1
  23   14   15 ar
  24   14   19 ar
  25   15   16 ar
  26   15   31 1
  27   16   17 ar
  28   16   32 1
  29   17   18 ar
  30   17   33 1
  31   18   19 ar
  32   18   34 1
  33   19   35 1
  34   20   21 ar
  35   20   25 1
  36   21   24 ar
  37   21   36 1
  38   22   23 ar
  39   22   24 ar
  40   22   37 1
  41   24   38 1

#	End of record

