#	Name: ASD00310109
#	Creating user name:	WinNT
#	Creation time:	15. 06. 2019 18:33

#	Modifying user name:	WinNT
#	Modification time:	15. 06. 2019 18:33

#	Program:	/corina/corina34_cracker 3.40 0067  02.08.2006

@<TRIPOS>MOLECULE
ASD00310109
  30   31    0    0    0
SMALL
NO_CHARGES


@<TRIPOS>ATOM
   1 N1            -0.0179     1.4660     0.0101 N.am    
   2 C2             0.0021    -0.0041     0.0020 C.3     
   3 C3             1.4817    -0.4423     0.0128 C.3     
   4 C4             2.2073     0.7983     0.5975 C.3     
   5 C5             1.3719     1.9577    -0.0005 C.3     
   6 S6            -1.3765     2.4127     0.0219 S.o2    
   7 O7            -0.9598     3.6312    -0.5788 O.2     
   8 O8            -2.3742     1.6015    -0.5828 O.2     
   9 C9            -1.7392     2.6620     1.7817 C.3     
  10 C10            1.6759    -1.6424     0.9033 C.ar    
  11 C11            2.1696    -2.8212     0.3764 C.ar    
  12 C12            2.3483    -3.9221     1.1929 C.ar    
  13 C13            2.0331    -3.8441     2.5375 C.ar    
  14 C14            1.5391    -2.6643     3.0643 C.ar    
  15 C15            1.3657    -1.5624     2.2481 C.ar    
  16 Br16           2.2767    -5.3500     3.6549 Br      
  17 H17           -0.5043    -0.3865     0.8883 H       
  18 H18           -0.4883    -0.3765    -0.8974 H       
  19 H19            1.8295    -0.6512    -0.9989 H       
  20 H20            2.1582     0.8025     1.6863 H       
  21 H21            3.2409     0.8441     0.2544 H       
  22 H22            1.6918     2.1688    -1.0209 H       
  23 H23            1.4634     2.8499     0.6189 H       
  24 H24           -0.8942     3.1569     2.2603 H       
  25 H25           -2.6296     3.2822     1.8849 H       
  26 H26           -1.9119     1.6965     2.2574 H       
  27 H27            2.4154    -2.8822    -0.6735 H       
  28 H28            2.7337    -4.8431     0.7810 H       
  29 H29            1.2925    -2.6031     4.1140 H       
  30 H30            0.9839    -0.6400     2.6602 H       
@<TRIPOS>BOND
   1    1    2 1
   2    1    5 1
   3    1    6 am
   4    2    3 1
   5    2   17 1
   6    2   18 1
   7    3    4 1
   8    3   10 1
   9    3   19 1
  10    4    5 1
  11    4   20 1
  12    4   21 1
  13    5   22 1
  14    5   23 1
  15    6    7 2
  16    6    8 2
  17    6    9 1
  18    9   24 1
  19    9   25 1
  20    9   26 1
  21   10   11 ar
  22   10   15 ar
  23   11   12 ar
  24   11   27 1
  25   12   13 ar
  26   12   28 1
  27   13   14 ar
  28   13   16 1
  29   14   15 ar
  30   14   29 1
  31   15   30 1

#	End of record

