#	Name: ASD07931691
#	Creating user name:	WinNT
#	Creation time:	15. 06. 2019 21:13

#	Modifying user name:	WinNT
#	Modification time:	15. 06. 2019 21:13

#	Program:	/corina/corina34_cracker 3.40 0067  02.08.2006

@<TRIPOS>MOLECULE
ASD07931691
  60   64    0    0    0
SMALL
NO_CHARGES


@<TRIPOS>ATOM
   1 C1            -0.4958     1.8071    -2.0285 C.2     
   2 C2            -0.5569     0.4432    -1.9417 C.2     
   3 C3             0.6388    -0.2923    -1.5228 C.2     
   4 N4             1.7619     0.3875    -1.2334 N.am    
   5 C5             1.7988     1.7602    -1.3305 C.2     
   6 C6             0.7007     2.4648    -1.7174 C.2     
   7 C7             2.9769    -0.3184    -0.8044 C.3     
   8 C8             4.1816     0.3546    -1.4789 C.3     
   9 N9             4.2221     1.7638    -1.0630 N.am    
  10 C10            3.0616     2.4599    -1.0060 C.2     
  11 C11            5.4938     2.4033    -0.7165 C.3     
  12 O12            0.6155    -1.5083    -1.4373 O.2     
  13 N13           -1.7395    -0.2366    -2.2467 N.pl3   
  14 C14           -2.3497    -0.3010    -3.4731 C.2     
  15 C15           -2.4988    -0.9635    -1.3854 C.2     
  16 N16           -3.5216    -1.4447    -2.0378 N.2     
  17 C17           -3.4553    -1.0541    -3.3194 C.2     
  18 C18           -4.4470    -1.3987    -4.4006 C.3     
  19 C19            6.1094     3.0268    -1.9707 C.3     
  20 O20            3.0575     3.6353    -0.6951 O.2     
  21 C21            7.3819     3.8088    -1.6004 C.3     
  22 C22            8.5444     3.1491    -2.3706 C.3     
  23 C23            7.8578     2.4546    -3.5728 C.3     
  24 C24            6.5431     1.9193    -2.9531 C.3     
  25 O25            7.2479     5.1762    -1.9933 O.3     
  26 C26            8.0038     6.0869    -1.3255 C.ar    
  27 C27            8.9398     5.6633    -0.3935 C.ar    
  28 C28            9.7071     6.5913     0.2841 C.ar    
  29 C29            9.5426     7.9409     0.0340 C.ar    
  30 C30            8.6098     8.3658    -0.8943 C.ar    
  31 C31            7.8446     7.4418    -1.5788 C.ar    
  32 C32            8.4327     9.8378    -1.1641 C.3     
  33 F33            9.3155    10.5685    -0.3617 F       
  34 F34            8.7011    10.1005    -2.5117 F       
  35 F35            7.1170    10.2110    -0.8693 F       
  36 H36           -1.3624     2.3719    -2.3389 H       
  37 H37            0.7526     3.5414    -1.7855 H       
  38 H38            3.0775    -0.2532     0.2790 H       
  39 H39            2.9217    -1.3639    -1.1075 H       
  40 H40            5.1001    -0.1448    -1.1706 H       
  41 H41            4.0750     0.2955    -2.5621 H       
  42 H42            5.3187     3.1807     0.0273 H       
  43 H43            6.1763     1.6576    -0.3089 H       
  44 H44           -2.0090     0.1631    -4.3868 H       
  45 H45           -2.2906    -1.1174    -0.3369 H       
  46 H46           -5.2284    -0.6394    -4.4322 H       
  47 H47           -3.9369    -1.4354    -5.3632 H       
  48 H48           -4.8929    -2.3704    -4.1883 H       
  49 H49            5.3894     3.6905    -2.4494 H       
  50 H50            7.5608     3.7441    -0.5271 H       
  51 H51            9.2491     3.9046    -2.7180 H       
  52 H52            9.0495     2.4147    -1.7433 H       
  53 H53            7.6469     3.1730    -4.3650 H       
  54 H54            8.4706     1.6344    -3.9467 H       
  55 H55            6.7250     0.9862    -2.4198 H       
  56 H56            5.7873     1.7772    -3.7256 H       
  57 H57            9.0685     4.6091    -0.1975 H       
  58 H58           10.4358     6.2620     1.0101 H       
  59 H59           10.1433     8.6647     0.5648 H       
  60 H60            7.1165     7.7741    -2.3040 H       
@<TRIPOS>BOND
   1    1    2 2
   2    1    6 1
   3    1   36 1
   4    2    3 1
   5    2   13 1
   6    3    4 am
   7    3   12 2
   8    4    5 1
   9    4    7 1
  10    5    6 2
  11    5   10 1
  12    6   37 1
  13    7    8 1
  14    7   38 1
  15    7   39 1
  16    8    9 1
  17    8   40 1
  18    8   41 1
  19    9   10 am
  20    9   11 1
  21   10   20 2
  22   11   19 1
  23   11   42 1
  24   11   43 1
  25   13   14 1
  26   13   15 1
  27   14   17 2
  28   14   44 1
  29   15   16 2
  30   15   45 1
  31   16   17 1
  32   17   18 1
  33   18   46 1
  34   18   47 1
  35   18   48 1
  36   19   21 1
  37   19   24 1
  38   19   49 1
  39   21   22 1
  40   21   25 1
  41   21   50 1
  42   22   23 1
  43   22   51 1
  44   22   52 1
  45   23   24 1
  46   23   53 1
  47   23   54 1
  48   24   55 1
  49   24   56 1
  50   25   26 1
  51   26   27 ar
  52   26   31 ar
  53   27   28 ar
  54   27   57 1
  55   28   29 ar
  56   28   58 1
  57   29   30 ar
  58   29   59 1
  59   30   31 ar
  60   30   32 1
  61   31   60 1
  62   32   33 1
  63   32   34 1
  64   32   35 1

#	End of record

