#	Name: ASD04910532
#	Creating user name:	WinNT
#	Creation time:	15. 06. 2019 20:56

#	Modifying user name:	WinNT
#	Modification time:	15. 06. 2019 20:56

#	Program:	/corina/corina34_cracker 3.40 0067  02.08.2006

@<TRIPOS>MOLECULE
ASD04910532
  61   63    0    0    0
SMALL
NO_CHARGES


@<TRIPOS>ATOM
   1 C1             1.0720     1.7057     0.6261 C.2     
   2 C2             0.9274     0.2090     0.5267 C.3     
   3 C3             2.3143    -0.4344     0.4662 C.3     
   4 O4             2.1714     2.2065     0.6465 O.2     
   5 O5            -0.0207     2.4830     0.6864 O.3     
   6 C6             3.2708    -2.6695     0.3033 C.2     
   7 C7             3.1291    -4.1379     0.2057 C.ar    
   8 C8             4.2632    -4.9486     0.1370 C.ar    
   9 C9             4.1239    -6.3181     0.0466 C.ar    
  10 C10            2.8635    -6.8883     0.0235 C.ar    
  11 C11            1.7352    -6.0904     0.0913 C.ar    
  12 C12            1.8606    -4.7199     0.1878 C.ar    
  13 O13            4.3769    -2.1657     0.3238 O.2     
  14 N14            2.1738    -1.8894     0.3695 N.am    
  15 C15            2.7189    -8.3850    -0.0764 C.3     
  16 C16            2.4383    -8.9641     1.3117 C.3     
  17 C17            1.1310    -8.3816     1.8525 C.3     
  18 N18            1.6080    -8.7095    -0.9746 N.pl3   
  19 C19            3.0735    -8.5099    -2.8878 C.ar    
  20 C20            1.8071    -8.7165    -2.3587 C.ar    
  21 C21            0.7363    -8.9317    -3.2249 C.ar    
  22 C22            0.9804    -8.9306    -4.5865 C.ar    
  23 C23            2.2754    -8.7167    -5.0425 C.ar    
  24 N24            3.2682    -8.5157    -4.1920 N.ar    
  25 N25            2.5323    -8.7138    -6.4183 N.pl3   
  26 N26            1.5884    -8.9107    -7.4347 N.2     
  27 C27            2.2050    -8.8370    -8.5864 C.2     
  28 C28            3.5611    -8.5909    -8.3455 C.2     
  29 C29            3.7399    -8.5137    -7.0064 C.2     
  30 C30            4.6330    -8.4339    -9.3931 C.3     
  31 F31            4.0661    -8.5716   -10.6646 F       
  32 F32            5.2164    -7.1676    -9.2772 F       
  33 F33            5.6117    -9.4167    -9.2099 F       
  34 C34            2.3167   -10.4861     1.2143 C.3     
  35 C35            3.5866    -8.6036     2.2564 C.3     
  36 H36            0.3920    -0.1632     1.4001 H       
  37 H37            0.3703    -0.0431    -0.3756 H       
  38 H38            2.8497    -0.0622    -0.4073 H       
  39 H39            2.8714    -0.1823     1.3685 H       
  40 H40            0.1223     3.4373     0.7495 H       
  41 H41            5.2476    -4.5046     0.1543 H       
  42 H42            5.0006    -6.9465    -0.0066 H       
  43 H43            0.7542    -6.5417     0.0728 H       
  44 H44            0.9791    -4.0985     0.2451 H       
  45 H45            1.2911    -2.2914     0.3531 H       
  46 H46            3.6409    -8.8137    -0.4693 H       
  47 H47            0.3129    -8.6384     1.1795 H       
  48 H48            0.9311    -8.7941     2.8414 H       
  49 H49            1.2176    -7.2972     1.9219 H       
  50 H50            0.7343    -8.9194    -0.6092 H       
  51 H51            3.9080    -8.3380    -2.2241 H       
  52 H52           -0.2601    -9.0956    -2.8420 H       
  53 H53            0.1744    -9.0944    -5.2864 H       
  54 H54            1.7455    -8.9475    -9.5575 H       
  55 H55            4.6743    -8.3289    -6.4974 H       
  56 H56            3.2121   -10.8928     0.7443 H       
  57 H57            2.2082   -10.9067     2.2140 H       
  58 H58            1.4431   -10.7432     0.6152 H       
  59 H59            3.6732    -7.5193     2.3257 H       
  60 H60            3.3867    -9.0162     3.2453 H       
  61 H61            4.5179    -9.0186     1.8710 H       
@<TRIPOS>BOND
   1    1    2 1
   2    1    4 2
   3    1    5 1
   4    2    3 1
   5    2   36 1
   6    2   37 1
   7    3   14 1
   8    3   38 1
   9    3   39 1
  10    5   40 1
  11    6    7 1
  12    6   13 2
  13    6   14 am
  14    7    8 ar
  15    7   12 ar
  16    8    9 ar
  17    8   41 1
  18    9   10 ar
  19    9   42 1
  20   10   11 ar
  21   10   15 1
  22   11   12 ar
  23   11   43 1
  24   12   44 1
  25   14   45 1
  26   15   16 1
  27   15   18 1
  28   15   46 1
  29   16   17 1
  30   16   34 1
  31   16   35 1
  32   17   47 1
  33   17   48 1
  34   17   49 1
  35   18   20 1
  36   18   50 1
  37   19   20 ar
  38   19   24 ar
  39   19   51 1
  40   20   21 ar
  41   21   22 ar
  42   21   52 1
  43   22   23 ar
  44   22   53 1
  45   23   24 ar
  46   23   25 1
  47   25   26 1
  48   25   29 1
  49   26   27 2
  50   27   28 1
  51   27   54 1
  52   28   29 2
  53   28   30 1
  54   29   55 1
  55   30   31 1
  56   30   32 1
  57   30   33 1
  58   34   56 1
  59   34   57 1
  60   34   58 1
  61   35   59 1
  62   35   60 1
  63   35   61 1

#	End of record

