#	Name: ASD01915156
#	Creating user name:	WinNT
#	Creation time:	15. 06. 2019 20:04

#	Modifying user name:	WinNT
#	Modification time:	15. 06. 2019 20:04

#	Program:	/corina/corina34_cracker 3.40 0067  02.08.2006

@<TRIPOS>MOLECULE
ASD01915156
  30   31    0    0    0
SMALL
NO_CHARGES


@<TRIPOS>ATOM
   1 C1            -0.0159     1.3215     0.0093 C.ar    
   2 N2             0.0021    -0.0041     0.0020 N.ar    
   3 C3            -1.1215    -0.6978     0.0095 C.ar    
   4 C4            -2.3433    -0.0117     0.0253 C.ar    
   5 C5            -2.3169     1.3893     0.0325 C.ar    
   6 N6            -1.1500     2.0076     0.0293 N.ar    
   7 C7            -3.5858    -0.7235     0.0333 C.1     
   8 C8            -4.6045    -1.3070     0.0399 C.1     
   9 C9            -5.8471    -2.0188     0.0480 C.ar    
  10 C10           -7.0566    -1.3195     0.0638 C.ar    
  11 C11           -8.2496    -2.0119     0.0715 C.ar    
  12 C12           -8.2504    -3.3955     0.0637 C.ar    
  13 C13           -7.0563    -4.0950     0.0481 C.ar    
  14 C14           -5.8559    -3.4163     0.0344 C.ar    
  15 C15           -7.0679    -5.6019     0.0396 C.3     
  16 N16            1.1842     2.0089     0.0015 N.pl3   
  17 C17            1.1893     3.4739     0.0094 C.3     
  18 H18           -1.0992    -1.7776     0.0031 H       
  19 H19           -3.2369     1.9548     0.0443 H       
  20 H20           -7.0575    -0.2395     0.0703 H       
  21 H21           -9.1853    -1.4727     0.0841 H       
  22 H22           -9.1875    -3.9323     0.0702 H       
  23 H23           -4.9248    -3.9634     0.0218 H       
  24 H24           -7.0807    -5.9594    -0.9900 H       
  25 H25           -6.1758    -5.9749     0.5427 H       
  26 H26           -7.9556    -5.9613     0.5601 H       
  27 H27            2.0226     1.5211    -0.0091 H       
  28 H28            0.6682     3.8438    -0.8737 H       
  29 H29            0.6852     3.8342     0.9061 H       
  30 H30            2.2182     3.8337     0.0015 H       
@<TRIPOS>BOND
   1    1    2 ar
   2    1   16 1
   3    1    6 ar
   4    2    3 ar
   5    3    4 ar
   6    3   18 1
   7    4    5 ar
   8    4    7 1
   9    5    6 ar
  10    5   19 1
  11    7    8 3
  12    8    9 1
  13    9   10 ar
  14    9   14 ar
  15   10   11 ar
  16   10   20 1
  17   11   12 ar
  18   11   21 1
  19   12   13 ar
  20   12   22 1
  21   13   14 ar
  22   13   15 1
  23   14   23 1
  24   15   24 1
  25   15   25 1
  26   15   26 1
  27   16   17 1
  28   16   27 1
  29   17   28 1
  30   17   29 1
  31   17   30 1

#	End of record

