#	Name: ASD07931647
#	Creating user name:	WinNT
#	Creation time:	15. 06. 2019 21:13

#	Modifying user name:	WinNT
#	Modification time:	15. 06. 2019 21:13

#	Program:	/corina/corina34_cracker 3.40 0067  02.08.2006

@<TRIPOS>MOLECULE
ASD07931647
  60   65    0    0    0
SMALL
NO_CHARGES


@<TRIPOS>ATOM
   1 N1            -0.0161     1.3387     0.0094 N.pl3   
   2 C2             0.0021    -0.0041     0.0020 C.2     
   3 C3             1.1792    -0.7098    -0.0130 C.2     
   4 C4             2.4648     0.0253    -0.0213 C.2     
   5 C5             2.3990     1.4982    -0.0132 C.ar    
   6 C6             3.5560     2.2795    -0.0204 C.ar    
   7 C7             3.4485     3.6603    -0.0126 C.ar    
   8 C8             2.2006     4.2602     0.0026 C.ar    
   9 C9             1.0516     3.4966     0.0102 C.ar    
  10 C10            1.1345     2.1082     0.0025 C.ar    
  11 N11            2.8984    -2.1581    -0.0372 N.am    
  12 N12            3.4186    -0.8614    -0.0351 N.2     
  13 C13            1.5483    -2.1219    -0.0241 C.2     
  14 O14            0.7897    -3.0777    -0.0216 O.2     
  15 C15           -1.3129     2.0202     0.0191 C.3     
  16 C16           -1.7510     2.2461     1.4432 C.ar    
  17 C17           -1.3933     3.4111     2.0976 C.ar    
  18 C18           -1.7914     3.6230     3.4020 C.ar    
  19 C19           -2.5553     2.6610     4.0596 C.ar    
  20 C20           -2.9132     1.4896     3.3955 C.ar    
  21 C21           -2.5140     1.2903     2.0894 C.ar    
  22 C22           -2.6325     4.0512     6.1347 C.ar    
  23 C23           -2.9859     2.8831     5.4622 C.ar    
  24 C24           -3.7525     1.9245     6.1298 C.ar    
  25 C25           -4.1292     2.1793     7.4375 C.ar    
  26 C26           -3.7384     3.3632     8.0355 C.ar    
  27 N27           -3.0141     4.2495     7.3798 N.ar    
  28 C28           -4.1460     3.6452     9.4587 C.3     
  29 C29            3.6668    -3.3278    -0.0508 C.ar    
  30 C30            4.6162    -3.5255    -1.0454 C.ar    
  31 C31            5.3730    -4.6804    -1.0557 C.ar    
  32 C32            5.1862    -5.6401    -0.0774 C.ar    
  33 C33            4.2417    -5.4467     0.9138 C.ar    
  34 C34            3.4857    -4.2909     0.9334 C.ar    
  35 C35            4.8197    -2.4808    -2.1123 C.3     
  36 O36            4.7793     1.6892    -0.0344 O.3     
  37 H37           -0.9340    -0.5427     0.0084 H       
  38 H38            4.3397     4.2703    -0.0181 H       
  39 H39            2.1259     5.3376     0.0089 H       
  40 H40            0.0850     3.9783     0.0224 H       
  41 H41           -1.2229     2.9798    -0.4899 H       
  42 H42           -2.0510     1.4042    -0.4946 H       
  43 H43           -0.8011     4.1561     1.5869 H       
  44 H44           -1.5110     4.5327     3.9122 H       
  45 H45           -3.5052     0.7407     3.9005 H       
  46 H46           -2.7942     0.3845     1.5723 H       
  47 H47           -2.0365     4.7986     5.6322 H       
  48 H48           -4.0441     1.0082     5.6381 H       
  49 H49           -4.7222     1.4613     7.9845 H       
  50 H50           -3.3852     3.2600    10.1376 H       
  51 H51           -4.2487     4.7210     9.6008 H       
  52 H52           -5.0988     3.1585     9.6670 H       
  53 H53            6.1113    -4.8346    -1.8287 H       
  54 H54            5.7792    -6.5427    -0.0879 H       
  55 H55            4.0979    -6.1983     1.6759 H       
  56 H56            2.7513    -4.1384     1.7104 H       
  57 H57            5.5775    -1.7693    -1.7843 H       
  58 H58            5.1475    -2.9617    -3.0339 H       
  59 H59            3.8813    -1.9557    -2.2904 H       
  60 H60            5.1253     1.5223    -0.9218 H       
@<TRIPOS>BOND
   1    1    2 1
   2    1   10 1
   3    1   15 1
   4    2    3 2
   5    2   37 1
   6    3    4 1
   7    3   13 1
   8    4    5 1
   9    4   12 2
  10    5    6 ar
  11    5   10 ar
  12    6    7 ar
  13    6   36 1
  14    7    8 ar
  15    7   38 1
  16    8    9 ar
  17    8   39 1
  18    9   10 ar
  19    9   40 1
  20   11   12 1
  21   11   13 am
  22   11   29 1
  23   13   14 2
  24   15   16 1
  25   15   41 1
  26   15   42 1
  27   16   17 ar
  28   16   21 ar
  29   17   18 ar
  30   17   43 1
  31   18   19 ar
  32   18   44 1
  33   19   20 ar
  34   19   23 1
  35   20   21 ar
  36   20   45 1
  37   21   46 1
  38   22   23 ar
  39   22   27 ar
  40   22   47 1
  41   23   24 ar
  42   24   25 ar
  43   24   48 1
  44   25   26 ar
  45   25   49 1
  46   26   27 ar
  47   26   28 1
  48   28   50 1
  49   28   51 1
  50   28   52 1
  51   29   30 ar
  52   29   34 ar
  53   30   31 ar
  54   30   35 1
  55   31   32 ar
  56   31   53 1
  57   32   33 ar
  58   32   54 1
  59   33   34 ar
  60   33   55 1
  61   34   56 1
  62   35   57 1
  63   35   58 1
  64   35   59 1
  65   36   60 1

#	End of record

