#	Name: ASD01910636
#	Creating user name:	WinNT
#	Creation time:	15. 06. 2019 19:56

#	Modifying user name:	WinNT
#	Modification time:	15. 06. 2019 19:56

#	Program:	/corina/corina34_cracker 3.40 0067  02.08.2006

@<TRIPOS>MOLECULE
ASD01910636
  43   46    0    0    0
SMALL
NO_CHARGES


@<TRIPOS>ATOM
   1 C1             0.0302     1.3063    -0.0545 C.ar    
   2 C2             0.0631    -0.0775    -0.0640 C.ar    
   3 C3             1.2877    -0.7291    -0.0706 C.ar    
   4 C4             2.4427     0.0346    -0.0675 C.ar    
   5 C5             2.3353     1.4248    -0.0578 C.ar    
   6 N6             1.1431     2.0091    -0.0516 N.ar    
   7 C7             3.5597     2.2555    -0.0543 C.2     
   8 N8             3.6176     3.5746    -0.0454 N.2     
   9 C9             4.9249     3.8776    -0.0457 C.2     
  10 N10            5.5882     2.7590    -0.0545 N.2     
  11 O11            4.8270     1.8147    -0.0537 O.3     
  12 C12            5.5172     5.2633    -0.0378 C.3     
  13 C13            6.3834     5.4414     1.2113 C.3     
  14 C14            6.9589     6.8592     1.2371 C.3     
  15 C15            7.8413     7.0704     0.0027 C.3     
  16 N16            7.0552     6.7600    -1.1992 N.am    
  17 C17            6.3832     5.4563    -1.2866 C.3     
  18 C18            6.9525     7.6541    -2.2024 C.2     
  19 C19            7.5551     8.9951    -2.0610 C.ar    
  20 O20            6.3639     7.3569    -3.2237 O.2     
  21 C21            8.9092     9.1260    -1.7471 C.ar    
  22 C22            9.4662    10.3830    -1.6163 C.ar    
  23 C23            8.6844    11.5134    -1.7959 C.ar    
  24 C24            7.3430    11.3918    -2.1068 C.ar    
  25 C25            6.7733    10.1397    -2.2465 C.ar    
  26 F26            5.4622    10.0223    -2.5504 F       
  27 F27           10.7763    10.5112    -1.3121 F       
  28 H28           -0.9218     1.8164    -0.0539 H       
  29 H29           -0.8561    -0.6446    -0.0658 H       
  30 H30            1.3391    -1.8079    -0.0777 H       
  31 H31            3.4130    -0.4397    -0.0721 H       
  32 H32            4.7154     6.0016    -0.0328 H       
  33 H33            5.7749     5.2803     2.1012 H       
  34 H34            7.1991     4.7186     1.1936 H       
  35 H35            6.1439     7.5829     1.2298 H       
  36 H36            7.5567     6.9929     2.1387 H       
  37 H37            8.1735     8.1078    -0.0358 H       
  38 H38            8.7063     6.4092     0.0544 H       
  39 H39            7.1293     4.6635    -1.3400 H       
  40 H40            5.7534     5.4288    -2.1758 H       
  41 H41            9.5197     8.2463    -1.6065 H       
  42 H42            9.1252    12.4939    -1.6920 H       
  43 H43            6.7396    12.2768    -2.2454 H       
@<TRIPOS>BOND
   1    1    2 ar
   2    1    6 ar
   3    1   28 1
   4    2    3 ar
   5    2   29 1
   6    3    4 ar
   7    3   30 1
   8    4    5 ar
   9    4   31 1
  10    5    6 ar
  11    5    7 1
  12    7    8 2
  13    7   11 1
  14    8    9 1
  15    9   10 2
  16    9   12 1
  17   10   11 1
  18   12   13 1
  19   12   17 1
  20   12   32 1
  21   13   14 1
  22   13   33 1
  23   13   34 1
  24   14   15 1
  25   14   35 1
  26   14   36 1
  27   15   16 1
  28   15   37 1
  29   15   38 1
  30   16   17 1
  31   16   18 am
  32   17   39 1
  33   17   40 1
  34   18   19 1
  35   18   20 2
  36   19   21 ar
  37   19   25 ar
  38   21   22 ar
  39   21   41 1
  40   22   23 ar
  41   22   27 1
  42   23   24 ar
  43   23   42 1
  44   24   25 ar
  45   24   43 1
  46   25   26 1

#	End of record

