#	Name: ASD02030756
#	Creating user name:	WinNT
#	Creation time:	15. 06. 2019 20:16

#	Modifying user name:	WinNT
#	Modification time:	15. 06. 2019 20:16

#	Program:	/corina/corina34_cracker 3.40 0067  02.08.2006

@<TRIPOS>MOLECULE
ASD02030756
  79   81    0    0    0
SMALL
NO_CHARGES


@<TRIPOS>ATOM
   1 O1            -3.2130    -3.5882     1.5615 O.2     
   2 O2            -2.4886     0.3352    -0.1972 O.2     
   3 O3             0.6395    -2.9598    -0.3815 O.2     
   4 O4            -0.1687     0.9814    -0.2074 O.3     
   5 C5            -3.7984    -2.2405    -1.5173 C.3     
   6 C6            -3.3555    -1.8608    -0.0965 C.3     
   7 C7            -2.6001    -2.7911    -2.2902 C.3     
   8 C8            -1.5906    -3.7200    -0.2006 C.3     
   9 C9            -2.0723    -4.0594    -1.6189 C.3     
  10 C10           -2.7722    -3.1129     0.5426 C.2     
  11 C11           -4.5307    -1.3209     0.7210 C.3     
  12 C12           -2.2340    -0.8519    -0.2017 C.2     
  13 C13           -4.8922    -3.3077    -1.4433 C.3     
  14 C14           -4.3407    -1.0009    -2.2316 C.3     
  15 C15           -1.4915    -1.7372    -2.3237 C.3     
  16 C16           -0.5307    -2.6461    -0.3024 C.2     
  17 C17           -1.0694    -4.9666     0.5171 C.3     
  18 C18           -0.8925    -1.2810    -0.3058 C.2     
  19 C19           -4.0562    -0.9606     2.1053 C.2     
  20 C20           -0.2234    -2.3587    -2.8497 C.2     
  21 C21           -0.6074    -4.5927     1.9020 C.2     
  22 C22            0.1156    -0.3177    -0.4167 C.2     
  23 C23           -4.1718     0.2706     2.5376 C.2     
  24 C24            0.3436    -1.8773    -3.9282 C.2     
  25 C25           -1.0227    -5.2780     2.9383 C.2     
  26 C26            1.4866    -0.7243    -0.7621 C.ar    
  27 C27           -4.6726     1.3500     1.6128 C.3     
  28 C28           -3.8039     0.6075     3.9596 C.3     
  29 C29           -0.2082    -0.6352    -4.5791 C.3     
  30 C30            1.5475    -2.5658    -4.5179 C.3     
  31 C31           -1.8661    -6.5107     2.7377 C.3     
  32 C32           -0.6571    -4.8337     4.3311 C.3     
  33 C33            2.5776    -0.1616    -0.0903 C.ar    
  34 C34            1.7065    -1.6800    -1.7604 C.ar    
  35 C35            3.8591    -0.5479    -0.4200 C.ar    
  36 C36            2.9944    -2.0554    -2.0781 C.ar    
  37 C37            4.0684    -1.4898    -1.4127 C.ar    
  38 H38           -2.9048    -3.0230    -3.3108 H       
  39 H39           -2.8692    -4.8011    -1.5647 H       
  40 H40           -1.2411    -4.4595    -2.1996 H       
  41 H41           -4.9355    -0.4340     0.2334 H       
  42 H42           -5.3063    -2.0836     0.7898 H       
  43 H43           -3.5603    -0.2418    -2.2852 H       
  44 H44           -4.6549    -1.2708    -3.2398 H       
  45 H45           -5.1934    -0.6069    -1.6786 H       
  46 H46           -5.7454    -2.9157    -0.8896 H       
  47 H47           -5.2061    -3.5768    -2.4518 H       
  48 H48           -4.5044    -4.1909    -0.9357 H       
  49 H49           -1.7907    -0.9157    -2.9747 H       
  50 H50           -1.3197    -1.3584    -1.3162 H       
  51 H51           -1.8675    -5.7057     0.5875 H       
  52 H52           -0.2342    -5.3862    -0.0436 H       
  53 H53           -3.6209    -1.7175     2.7409 H       
  54 H54            0.2181    -3.2008    -2.3376 H       
  55 H55            0.0660    -3.7598     2.0400 H       
  56 H56            0.5607     1.6101    -0.2954 H       
  57 H57           -5.7467     1.4756     1.7491 H       
  58 H58           -2.7503     0.8831     4.0068 H       
  59 H59           -4.4137     1.4425     4.3045 H       
  60 H60           -3.9815    -0.2594     4.5960 H       
  61 H61           -4.1654     2.2876     1.8405 H       
  62 H62           -4.4679     1.0675     0.5802 H       
  63 H63            1.2209    -3.3112    -5.2429 H       
  64 H64            2.1804    -1.8297    -5.0135 H       
  65 H65            0.2082     0.2462    -4.0913 H       
  66 H66            0.0620    -0.6278    -5.6351 H       
  67 H67           -1.2938    -0.6256    -4.4818 H       
  68 H68            2.1119    -3.0544    -3.7236 H       
  69 H69           -1.4194    -4.1511     4.7066 H       
  70 H70           -0.5941    -5.7034     4.9852 H       
  71 H71            0.3068    -4.3252     4.3090 H       
  72 H72           -2.0986    -6.6235     1.6788 H       
  73 H73           -1.3177    -7.3865     3.0845 H       
  74 H74           -2.7920    -6.4137     3.3046 H       
  75 H75            2.4160     0.5736     0.6842 H       
  76 H76            0.8696    -2.1225    -2.2802 H       
  77 H77            4.7022    -0.1144     0.0973 H       
  78 H78            3.1658    -2.7929    -2.8483 H       
  79 H79            5.0749    -1.7882    -1.6663 H       
@<TRIPOS>BOND
   1    1   10 2
   2    2   12 2
   3    3   16 2
   4    4   22 1
   5    4   56 1
   6    5    6 1
   7    5    7 1
   8    5   13 1
   9    5   14 1
  10    6   10 1
  11    6   11 1
  12    6   12 1
  13    7    9 1
  14    7   15 1
  15    7   38 1
  16    8    9 1
  17    8   10 1
  18    8   16 1
  19    8   17 1
  20    9   39 1
  21    9   40 1
  22   11   19 1
  23   11   41 1
  24   11   42 1
  25   12   18 1
  26   13   46 1
  27   13   47 1
  28   13   48 1
  29   14   43 1
  30   14   44 1
  31   14   45 1
  32   15   20 1
  33   15   49 1
  34   15   50 1
  35   16   18 1
  36   17   21 1
  37   17   51 1
  38   17   52 1
  39   18   22 2
  40   19   23 2
  41   19   53 1
  42   20   24 2
  43   20   54 1
  44   21   25 2
  45   21   55 1
  46   22   26 1
  47   23   27 1
  48   23   28 1
  49   24   29 1
  50   24   30 1
  51   25   31 1
  52   25   32 1
  53   26   33 ar
  54   26   34 ar
  55   27   57 1
  56   27   61 1
  57   27   62 1
  58   28   58 1
  59   28   59 1
  60   28   60 1
  61   29   65 1
  62   29   66 1
  63   29   67 1
  64   30   63 1
  65   30   64 1
  66   30   68 1
  67   31   72 1
  68   31   73 1
  69   31   74 1
  70   32   69 1
  71   32   70 1
  72   32   71 1
  73   33   35 ar
  74   33   75 1
  75   34   36 ar
  76   34   76 1
  77   35   37 ar
  78   35   77 1
  79   36   37 ar
  80   36   78 1
  81   37   79 1

#	End of record

