#	Name: ASD03091291
#	Creating user name:	WinNT
#	Creation time:	15. 06. 2019 20:30

#	Modifying user name:	WinNT
#	Modification time:	15. 06. 2019 20:30

#	Program:	/corina/corina34_cracker 3.40 0067  02.08.2006

@<TRIPOS>MOLECULE
ASD03091291
  55   59    0    0    0
SMALL
NO_CHARGES


@<TRIPOS>ATOM
   1 N1            -0.0394     1.3284     0.2322 N.2     
   2 C2            -0.0782     0.0312     0.0685 C.2     
   3 N3             1.0422    -0.7308    -0.1271 N.am    
   4 C4             2.2659    -0.1533    -0.1597 C.2     
   5 C5             2.3333     1.3044     0.0217 C.ar    
   6 C6             3.5454     1.9908     0.0036 C.ar    
   7 C7             3.5505     3.3643     0.1791 C.ar    
   8 C8             2.3545     4.0559     0.3728 C.ar    
   9 C9             1.1591     3.3969     0.3929 C.ar    
  10 C10            1.1242     2.0099     0.2182 C.ar    
  11 O11            3.2725    -0.8156    -0.3322 O.2     
  12 C12            0.9161    -2.1798    -0.3018 C.3     
  13 C13            0.6349    -2.4937    -1.7726 C.3     
  14 O14            1.7622    -2.1142    -2.5645 O.3     
  15 C15           -1.3921    -0.6431     0.0965 C.ar    
  16 C16           -1.6581    -1.6243     1.0569 C.ar    
  17 C17           -2.8904    -2.2503     1.0759 C.ar    
  18 C18           -3.8570    -1.9081     0.1482 C.ar    
  19 C19           -3.5991    -0.9378    -0.8043 C.ar    
  20 C20           -2.3765    -0.3000    -0.8320 C.ar    
  21 F21           -0.7136    -1.9595     1.9628 F       
  22 N22            7.4276     4.8639    -0.8465 N.3     
  23 C23            7.2350     3.8426     0.1943 C.3     
  24 C24            5.8964     3.1425     0.0188 C.3     
  25 N25            4.7614     4.0620     0.1627 N.3     
  26 C26            4.7734     5.0709    -0.9059 C.3     
  27 C27            5.4845     6.3316    -0.4377 C.3     
  28 C28            6.9894     6.1762    -0.3500 C.3     
  29 C29            6.8975     4.5514    -2.1563 C.3     
  30 C30            5.3802     4.4632    -2.1574 C.3     
  31 H31            4.4722     1.4568    -0.1455 H       
  32 H32            2.3747     5.1270     0.5090 H       
  33 H33            0.2416     3.9461     0.5442 H       
  34 H34            1.8438    -2.6646     0.0023 H       
  35 H35            0.0947    -2.5496     0.3121 H       
  36 H36            0.4531    -3.5622    -1.8878 H       
  37 H37           -0.2435    -1.9382    -2.1012 H       
  38 H38            1.6540    -2.2849    -3.5102 H       
  39 H39           -3.0985    -3.0084     1.8165 H       
  40 H40           -4.8180    -2.4007     0.1669 H       
  41 H41           -4.3591    -0.6763    -1.5257 H       
  42 H42           -2.1794     0.4600    -1.5735 H       
  43 H43            8.0364     3.1067     0.1279 H       
  44 H44            7.2656     4.3185     1.1744 H       
  45 H45            5.8614     2.6909    -0.9726 H       
  46 H46            5.8094     2.3545     0.7669 H       
  47 H47            3.7401     5.3306    -1.1359 H       
  48 H48            5.2566     7.1400    -1.1325 H       
  49 H49            5.1033     6.6028     0.5468 H       
  50 H50            7.2983     6.2846     0.6897 H       
  51 H51            7.4630     6.9578    -0.9440 H       
  52 H52            7.2070     5.3267    -2.8572 H       
  53 H53            7.3073     3.5963    -2.4849 H       
  54 H54            5.0862     3.4155    -2.2208 H       
  55 H55            4.9952     4.9909    -3.0300 H       
@<TRIPOS>BOND
   1    1    2 2
   2    1   10 1
   3    2    3 1
   4    2   15 1
   5    3    4 am
   6    3   12 1
   7    4    5 1
   8    4   11 2
   9    5    6 ar
  10    5   10 ar
  11    6    7 ar
  12    6   31 1
  13    7    8 ar
  14    7   25 1
  15    8    9 ar
  16    8   32 1
  17    9   10 ar
  18    9   33 1
  19   12   13 1
  20   12   34 1
  21   12   35 1
  22   13   14 1
  23   13   36 1
  24   13   37 1
  25   14   38 1
  26   15   16 ar
  27   15   20 ar
  28   16   17 ar
  29   16   21 1
  30   17   18 ar
  31   17   39 1
  32   18   19 ar
  33   18   40 1
  34   19   20 ar
  35   19   41 1
  36   20   42 1
  37   22   23 1
  38   22   28 1
  39   22   29 1
  40   23   24 1
  41   23   43 1
  42   23   44 1
  43   24   25 1
  44   24   45 1
  45   24   46 1
  46   25   26 1
  47   26   27 1
  48   26   30 1
  49   26   47 1
  50   27   28 1
  51   27   48 1
  52   27   49 1
  53   28   50 1
  54   28   51 1
  55   29   30 1
  56   29   52 1
  57   29   53 1
  58   30   54 1
  59   30   55 1

#	End of record

