#	Name: ASD03330321
#	Creating user name:	WinNT
#	Creation time:	15. 06. 2019 20:37

#	Modifying user name:	WinNT
#	Modification time:	15. 06. 2019 20:37

#	Program:	/corina/corina34_cracker 3.40 0067  02.08.2006

@<TRIPOS>MOLECULE
ASD03330321
  64   67    0    0    0
SMALL
NO_CHARGES


@<TRIPOS>ATOM
   1 C1            -2.1052     1.4814    -2.9249 C.3     
   2 N2            -1.8588     0.1108    -2.4520 N.am    
   3 C3            -0.8590    -0.7020    -3.1710 C.3     
   4 C4             0.3239     0.1952    -3.4408 C.2     
   5 N5             0.3153     1.5467    -3.2537 N.pl3   
   6 C6            -0.8292     2.3137    -2.7563 C.3     
   7 C7             1.5552    -0.1437    -3.8960 C.2     
   8 N8             2.2867     0.9982    -3.9900 N.2     
   9 C9             1.5455     2.0137    -3.6074 C.2     
  10 C10            1.9746     3.4275    -3.5682 C.2     
  11 C11            1.3085     4.3747    -2.8814 C.2     
  12 C12            2.0164    -1.5027    -4.2288 C.2     
  13 O13            1.2626    -2.4488    -4.1021 O.2     
  14 C14            3.7322    -3.0490    -5.0046 C.3     
  15 N15            3.2736    -1.6976    -4.6736 N.am    
  16 S16           -2.6789    -0.5021    -1.1505 S.o2    
  17 O17           -3.1038     0.6149    -0.3817 O.2     
  18 C18           -4.1415    -1.2663    -1.7683 C.ar    
  19 O19           -1.8723    -1.5466    -0.6236 O.2     
  20 C20           -4.1247    -2.6014    -2.1264 C.ar    
  21 C21           -5.2711    -3.2017    -2.6115 C.ar    
  22 C22           -6.4539    -1.1298    -2.3741 C.ar    
  23 C23           -5.3063    -0.5316    -1.8892 C.ar    
  24 C24            4.8553    -2.9672    -6.0061 C.2     
  25 O25            5.4184    -1.9108    -6.2009 O.2     
  26 C26            4.2303    -3.7436    -3.7355 C.3     
  27 C27            3.0760    -3.8758    -2.7400 C.3     
  28 C28            4.7599    -5.1346    -4.0898 C.3     
  29 C29            5.3529    -2.9151    -3.1077 C.3     
  30 N30            5.2339    -4.0679    -6.6854 N.am    
  31 C31            6.3776    -4.0076    -7.5991 C.3     
  32 C32           -6.4368    -2.4655    -2.7384 C.ar    
  33 F33           -7.5581    -3.0513    -3.2125 F       
  34 S34            2.0768     5.8886    -3.0524 S.3     
  35 C35            3.3242     5.1989    -4.0802 C.2     
  36 C36            3.1097     3.8945    -4.2358 C.2     
  37 H37           -2.3876     1.4577    -3.9774 H       
  38 H38           -2.9105     1.9280    -2.3418 H       
  39 H39           -0.5525    -1.5465    -2.5539 H       
  40 H40           -1.2772    -1.0596    -4.1119 H       
  41 H41           -0.9210     3.2400    -3.3234 H       
  42 H42           -0.6819     2.5447    -1.7013 H       
  43 H43            0.4130     4.2007    -2.3034 H       
  44 H44            2.9064    -3.6189    -5.4304 H       
  45 H45            3.8747    -0.9431    -4.7747 H       
  46 H46           -3.2153    -3.1755    -2.0273 H       
  47 H47           -5.2576    -4.2446    -2.8918 H       
  48 H48           -7.3638    -0.5556    -2.4685 H       
  49 H49           -5.3193     0.5102    -1.6051 H       
  50 H50            2.2762    -4.4660    -3.1873 H       
  51 H51            3.4308    -4.3706    -1.8359 H       
  52 H52            2.6987    -2.8848    -2.4876 H       
  53 H53            5.5009    -5.0496    -4.8847 H       
  54 H54            5.2210    -5.5829    -3.2097 H       
  55 H55            3.9352    -5.7623    -4.4275 H       
  56 H56            4.9756    -1.9241    -2.8553 H       
  57 H57            5.7077    -3.4099    -2.2037 H       
  58 H58            6.1752    -2.8210    -3.8170 H       
  59 H59            4.7493    -4.9001    -6.5694 H       
  60 H60            7.2708    -3.7201    -7.0445 H       
  61 H61            6.5314    -4.9862    -8.0538 H       
  62 H62            6.1813    -3.2715    -8.3787 H       
  63 H63            4.1440     5.7500    -4.5167 H       
  64 H64            3.7496     3.2577    -4.8286 H       
@<TRIPOS>BOND
   1    1    2 1
   2    1    6 1
   3    1   37 1
   4    1   38 1
   5    2    3 1
   6    2   16 am
   7    3    4 1
   8    3   39 1
   9    3   40 1
  10    4    5 1
  11    4    7 2
  12    5    6 1
  13    5    9 1
  14    6   41 1
  15    6   42 1
  16    7    8 1
  17    7   12 1
  18    8    9 2
  19    9   10 1
  20   10   11 2
  21   10   36 1
  22   11   34 1
  23   11   43 1
  24   12   13 2
  25   12   15 am
  26   14   15 1
  27   14   24 1
  28   14   26 1
  29   14   44 1
  30   15   45 1
  31   16   17 2
  32   16   18 1
  33   16   19 2
  34   18   20 ar
  35   18   23 ar
  36   20   21 ar
  37   20   46 1
  38   21   32 ar
  39   21   47 1
  40   22   23 ar
  41   22   32 ar
  42   22   48 1
  43   23   49 1
  44   24   25 2
  45   24   30 am
  46   26   27 1
  47   26   28 1
  48   26   29 1
  49   27   50 1
  50   27   51 1
  51   27   52 1
  52   28   53 1
  53   28   54 1
  54   28   55 1
  55   29   56 1
  56   29   57 1
  57   29   58 1
  58   30   31 1
  59   30   59 1
  60   31   60 1
  61   31   61 1
  62   31   62 1
  63   32   33 1
  64   34   35 1
  65   35   36 2
  66   35   63 1
  67   36   64 1

#	End of record

