#	Name: ASD01410901
#	Creating user name:	WinNT
#	Creation time:	15. 06. 2019 19:18

#	Modifying user name:	WinNT
#	Modification time:	15. 06. 2019 19:18

#	Program:	/corina/corina34_cracker 3.40 0067  02.08.2006

@<TRIPOS>MOLECULE
ASD01410901
  71   74    0    0    0
SMALL
NO_CHARGES


@<TRIPOS>ATOM
   1 C1            -1.5054     1.9132     1.6611 C.ar    
   2 C2            -1.9263    -0.4024     1.1752 C.ar    
   3 C3            -3.2021    -0.0827     0.7318 C.ar    
   4 C4            -3.6376     1.2509     0.7650 C.ar    
   5 C5            -2.7756     2.2478     1.2281 C.ar    
   6 O6            -0.6679     2.8823     2.1173 O.3     
   7 C7             0.4252     3.1821     1.3719 C.ar    
   8 N8            -4.0520    -1.0846     0.2657 N.am    
   9 C9            -4.9998    -1.5954     1.0764 C.2     
  10 C10           -5.8330    -2.7646     0.6184 C.3     
  11 O11           -5.1821    -1.1141     2.1746 O.2     
  12 C12           -6.5756    -3.3617     1.8154 C.3     
  13 C13           -7.6920    -3.4780    -0.8908 C.3     
  14 C14           -8.4346    -4.0751     0.3062 C.3     
  15 C15           -7.4215    -4.5487     1.3503 C.3     
  16 C16           -9.2805    -5.2621    -0.1588 C.3     
  17 N17            0.5887     2.6113     0.1896 N.ar    
  18 C18           -3.9150    -1.5822    -1.1054 C.3     
  19 C19            1.3592     4.0898     1.8547 C.ar    
  20 C20            2.4698     4.3874     1.0840 C.ar    
  21 C21            2.6072     3.7633    -0.1480 C.ar    
  22 C22            1.6366     2.8749    -0.5673 C.ar    
  23 C23           -6.8461    -2.2909    -0.4258 C.3     
  24 C24           -1.0844     0.5890     1.6368 C.ar    
  25 C25           -2.5776    -2.3107    -1.2523 C.3     
  26 O26           -2.5561    -3.4464    -0.3852 O.3     
  27 C27           -1.3439    -4.2008    -0.4455 C.3     
  28 C28           -3.9641    -0.4235    -2.0676 C.ar    
  29 C29           -4.9880    -0.3358    -2.9922 C.ar    
  30 C30           -5.0331     0.7271    -3.8749 C.ar    
  31 C31           -4.0545     1.7026    -3.8327 C.ar    
  32 C32           -3.0311     1.6154    -2.9075 C.ar    
  33 C33           -2.9885     0.5547    -2.0219 C.ar    
  34 C34            1.1656     4.7423     3.1992 C.3     
  35 F35            2.2341     5.6084     3.4554 F       
  36 F36           -0.0315     5.4662     3.1983 F       
  37 F37            1.1147     3.7581     4.1922 F       
  38 C38           -4.9904     1.6004     0.2958 C.2     
  39 O39           -5.7059     0.7451    -0.1870 O.2     
  40 O40           -5.4338     2.8685     0.4023 O.3     
  41 H41           -1.5886    -1.4280     1.1508 H       
  42 H42           -3.1005     3.2776     1.2484 H       
  43 H43           -5.1848    -3.5223     0.1781 H       
  44 H44           -5.8538    -3.6991     2.5592 H       
  45 H45           -7.2238    -2.6040     2.2556 H       
  46 H46           -7.0438    -4.2357    -1.3311 H       
  47 H47           -8.4137    -3.1405    -1.6347 H       
  48 H48           -9.0828    -3.3174     0.7465 H       
  49 H49           -6.7733    -5.3065     0.9101 H       
  50 H50           -7.9506    -4.9741     2.2031 H       
  51 H51           -8.6323    -6.0199    -0.5991 H       
  52 H52           -9.8096    -5.6875     0.6939 H       
  53 H53          -10.0022    -4.9247    -0.9027 H       
  54 H54           -4.7303    -2.2716    -1.3249 H       
  55 H55            3.2124     5.0895     1.4334 H       
  56 H56            3.4618     3.9734    -0.7740 H       
  57 H57            1.7389     2.3863    -1.5250 H       
  58 H58           -7.4942    -1.5332     0.0145 H       
  59 H59           -6.3170    -1.8656    -1.2786 H       
  60 H60           -0.0927     0.3344     1.9806 H       
  61 H61           -2.4541    -2.6391    -2.2843 H       
  62 H62           -1.7647    -1.6351    -0.9862 H       
  63 H63           -1.1949    -4.5684    -1.4608 H       
  64 H64           -0.5054    -3.5644    -0.1628 H       
  65 H65           -1.4069    -5.0451     0.2410 H       
  66 H66           -5.7526    -1.0979    -3.0252 H       
  67 H67           -5.8327     0.7952    -4.5977 H       
  68 H68           -4.0894     2.5326    -4.5228 H       
  69 H69           -2.2664     2.3773    -2.8747 H       
  70 H70           -2.1889     0.4866    -1.2991 H       
  71 H71           -6.3277     3.0494     0.0810 H       
@<TRIPOS>BOND
   1    1   24 ar
   2    1    6 1
   3    1    5 ar
   4    2    3 ar
   5    2   24 ar
   6    2   41 1
   7    3    4 ar
   8    3    8 1
   9    4    5 ar
  10    4   38 1
  11    5   42 1
  12    6    7 1
  13    7   19 ar
  14    7   17 ar
  15    8    9 am
  16    8   18 1
  17    9   11 2
  18    9   10 1
  19   10   12 1
  20   10   23 1
  21   10   43 1
  22   12   15 1
  23   12   44 1
  24   12   45 1
  25   13   14 1
  26   13   23 1
  27   13   46 1
  28   13   47 1
  29   14   15 1
  30   14   16 1
  31   14   48 1
  32   15   49 1
  33   15   50 1
  34   16   51 1
  35   16   52 1
  36   16   53 1
  37   17   22 ar
  38   18   25 1
  39   18   28 1
  40   18   54 1
  41   19   20 ar
  42   19   34 1
  43   20   21 ar
  44   20   55 1
  45   21   22 ar
  46   21   56 1
  47   22   57 1
  48   23   58 1
  49   23   59 1
  50   24   60 1
  51   25   26 1
  52   25   61 1
  53   25   62 1
  54   26   27 1
  55   27   63 1
  56   27   64 1
  57   27   65 1
  58   28   29 ar
  59   28   33 ar
  60   29   30 ar
  61   29   66 1
  62   30   31 ar
  63   30   67 1
  64   31   32 ar
  65   31   68 1
  66   32   33 ar
  67   32   69 1
  68   33   70 1
  69   34   35 1
  70   34   36 1
  71   34   37 1
  72   38   39 2
  73   38   40 1
  74   40   71 1

#	End of record

