#	Name: ASD01911849
#	Creating user name:	WinNT
#	Creation time:	15. 06. 2019 19:58

#	Modifying user name:	WinNT
#	Modification time:	15. 06. 2019 19:58

#	Program:	/corina/corina34_cracker 3.40 0067  02.08.2006

@<TRIPOS>MOLECULE
ASD01911849
  32   34    0    0    0
SMALL
NO_CHARGES


@<TRIPOS>ATOM
   1 C1            -1.0605    -0.5026    -2.0837 C.ar    
   2 C2            -1.0562     0.0558    -0.8090 C.ar    
   3 C3            -1.0050     1.4359    -0.6784 C.ar    
   4 N4            -0.9610     2.2113    -1.7437 N.ar    
   5 C5            -0.9637     1.7143    -2.9650 C.ar    
   6 C6            -1.0132     0.3487    -3.1755 C.ar    
   7 O7            -1.1019    -0.7395     0.2920 O.3     
   8 C8            -1.1523    -2.0846     0.1057 C.ar    
   9 C9            -0.0017    -2.7820    -0.2369 C.ar    
  10 C10           -0.0515    -4.1497    -0.4267 C.ar    
  11 C11           -1.2459    -4.8277    -0.2767 C.ar    
  12 C12           -2.4004    -4.1352     0.0660 C.ar    
  13 C13           -2.3512    -2.7620     0.2631 C.ar    
  14 N14           -3.6093    -4.8213     0.2173 N.am    
  15 C15           -4.7715    -4.2166    -0.0993 C.2     
  16 C16           -6.0502    -4.8996     0.1569 C.2     
  17 S17           -7.6475    -4.2484    -0.1975 S.3     
  18 O18           -4.7638    -3.1066    -0.5965 O.2     
  19 C19           -8.3733    -5.6726     0.4118 C.2     
  20 C20           -7.4119    -6.5128     0.8259 C.2     
  21 N21           -6.1842    -6.0890     0.6786 N.2     
  22 H22           -1.0953    -1.5736    -2.2184 H       
  23 H23           -1.0016     1.8798     0.3062 H       
  24 H24           -0.9270     2.3830    -3.8123 H       
  25 H25           -1.0147    -0.0496    -4.1794 H       
  26 H26            0.9333    -2.2547    -0.3555 H       
  27 H27            0.8450    -4.6898    -0.6931 H       
  28 H28           -1.2821    -5.8967    -0.4263 H       
  29 H29           -3.2472    -2.2212     0.5299 H       
  30 H30           -3.6115    -5.7324     0.5500 H       
  31 H31           -9.4351    -5.8647     0.4567 H       
  32 H32           -7.6383    -7.4798     1.2504 H       
@<TRIPOS>BOND
   1    1    2 ar
   2    1    6 ar
   3    1   22 1
   4    2    3 ar
   5    2    7 1
   6    3    4 ar
   7    3   23 1
   8    4    5 ar
   9    5    6 ar
  10    5   24 1
  11    6   25 1
  12    7    8 1
  13    8    9 ar
  14    8   13 ar
  15    9   10 ar
  16    9   26 1
  17   10   11 ar
  18   10   27 1
  19   11   12 ar
  20   11   28 1
  21   12   13 ar
  22   12   14 1
  23   13   29 1
  24   14   15 am
  25   14   30 1
  26   15   16 1
  27   15   18 2
  28   16   17 1
  29   16   21 2
  30   17   19 1
  31   19   20 2
  32   19   31 1
  33   20   21 1
  34   20   32 1

#	End of record

