#	Name: ASD00845443
#	Creating user name:	WinNT
#	Creation time:	15. 06. 2019 18:52

#	Modifying user name:	WinNT
#	Modification time:	15. 06. 2019 18:52

#	Program:	/corina/corina34_cracker 3.40 0067  02.08.2006

@<TRIPOS>MOLECULE
ASD00845443
  83   88    0    0    0
SMALL
NO_CHARGES


@<TRIPOS>ATOM
   1 F1            -0.0915    -3.1263     4.7193 F       
   2 C2            -0.0167     1.3829     0.0096 C.ar    
   3 C3             0.0021    -0.0041     0.0020 C.ar    
   4 C4             1.2143    -0.6791    -0.0132 C.ar    
   5 C5             2.3989     0.0312    -0.0207 C.ar    
   6 C6             2.3774     1.4139    -0.0126 C.ar    
   7 C7             1.1710     2.0888     0.0021 C.ar    
   8 C8             1.2384    -2.1858    -0.0210 C.3     
   9 C9             0.4953    -2.7219    -1.2261 C.2     
  10 O10            2.6067    -2.6715    -0.0097 O.3     
  11 C11            3.3980    -2.2932    -1.0313 C.2     
  12 N12            4.6790    -2.7090    -1.0812 N.am    
  13 O13            2.9572    -1.5768    -1.9082 O.2     
  14 C14            5.5547    -2.3046    -2.1894 C.3     
  15 C15            6.1662    -3.5606    -2.8182 C.3     
  16 C16            6.8654    -4.3813    -1.7320 C.3     
  17 C17            5.8417    -4.8168    -0.6810 C.3     
  18 C18            5.2281    -3.5704    -0.0251 C.3     
  19 C19            7.5070    -5.6191    -2.3621 C.3     
  20 C20            8.5328    -5.1851    -3.4128 C.3     
  21 C21            9.2145    -6.4250    -3.9958 C.3     
  22 N22            9.8763    -7.1730    -2.9194 N.3     
  23 C23            8.9046    -7.6409    -1.9227 C.3     
  24 C24            8.2137    -6.4373    -1.2778 C.3     
  25 C25           10.6570    -8.2938    -3.4600 C.3     
  26 O26            0.7741    -2.5257    -2.3901 O.2     
  27 N27           -0.5308    -3.4561    -0.7641 N.am    
  28 C28            0.4693    -2.7338     1.1591 C.ar    
  29 C29           -0.5745    -3.4835     0.6314 C.ar    
  30 C30            0.6336    -2.6122     2.5207 C.ar    
  31 C31           -0.2493    -3.2426     3.3826 C.ar    
  32 C32           -1.2952    -3.9938     2.8681 C.ar    
  33 C33           -1.4597    -4.1156     1.5017 C.ar    
  34 F34           -2.1572    -4.6094     3.7067 F       
  35 C35           -0.9812    -5.8525    -2.0402 C.ar    
  36 C36           -1.3046    -6.8938    -1.1905 C.ar    
  37 C37           -0.1624    -6.0791    -3.1307 C.ar    
  38 C38            0.3331    -7.3469    -3.3714 C.ar    
  39 C39            0.0100    -8.3881    -2.5214 C.ar    
  40 C40           -0.8088    -8.1616    -1.4310 C.ar    
  41 H41            0.3971    -9.3787    -2.7095 H       
  42 H42           -1.9443    -6.7168    -0.3385 H       
  43 S43           -1.6186    -4.2380    -1.7375 S.o2    
  44 O44           -2.7978    -4.4107    -0.9636 O.2     
  45 O45           -1.6007    -3.5589    -2.9856 O.2     
  46 O46           -1.1648    -0.7006     0.0099 O.3     
  47 C47           -2.3744     0.0601     0.0260 C.3     
  48 C48           -3.5740    -0.8895     0.0328 C.3     
  49 F49           -3.5417    -1.6899    -1.1142 F       
  50 F50           -3.5190    -1.7022     1.1702 F       
  51 H51           -0.9590     1.9106     0.0170 H       
  52 H52            3.3426    -0.4937    -0.0325 H       
  53 H53            3.3047     1.9675    -0.0178 H       
  54 H54            1.1569     3.1687     0.0084 H       
  55 H55            4.9723    -1.7677    -2.9382 H       
  56 H56            6.3493    -1.6614    -1.8113 H       
  57 H57            5.3783    -4.1589    -3.2757 H       
  58 H58            6.8915    -3.2706    -3.5785 H       
  59 H59            7.6366    -3.7742    -1.2581 H       
  60 H60            5.0568    -5.4032    -1.1587 H       
  61 H61            6.3359    -5.4208     0.0799 H       
  62 H62            5.9975    -3.0329     0.5291 H       
  63 H63            4.4288    -3.8702     0.6526 H       
  64 H64            6.7365    -6.2280    -2.8351 H       
  65 H65            8.0285    -4.6384    -4.2097 H       
  66 H66            9.2810    -4.5433    -2.9475 H       
  67 H67            8.4676    -7.0595    -4.4730 H       
  68 H68            9.9556    -6.1186    -4.7340 H       
  69 H69            8.1592    -8.2697    -2.4096 H       
  70 H70            9.4207    -8.2176    -1.1552 H       
  71 H71            8.9569    -5.8152    -0.7789 H       
  72 H72            7.4814    -6.7853    -0.5493 H       
  73 H73           11.4188    -7.9116    -4.1395 H       
  74 H74           11.1366    -8.8307    -2.6416 H       
  75 H75            9.9950    -8.9706    -4.0001 H       
  76 H76            1.4500    -2.0263     2.9165 H       
  77 H77           -2.2766    -4.7018     1.1074 H       
  78 H78            0.0900    -5.2656    -3.7947 H       
  79 H79            0.9722    -7.5241    -4.2237 H       
  80 H80           -1.0614    -8.9751    -0.7671 H       
  81 H81           -2.3995     0.6837     0.9196 H       
  82 H82           -2.4172     0.6932    -0.8603 H       
  83 H83           -4.4966    -0.3093     0.0451 H       
@<TRIPOS>BOND
   1    1   31 1
   2    2    3 ar
   3    2    7 ar
   4    2   51 1
   5    3    4 ar
   6    3   46 1
   7    4    5 ar
   8    4    8 1
   9    5    6 ar
  10    5   52 1
  11    6    7 ar
  12    6   53 1
  13    7   54 1
  14    8    9 1
  15    8   10 1
  16    8   28 1
  17    9   26 2
  18    9   27 am
  19   10   11 1
  20   11   12 am
  21   11   13 2
  22   12   14 1
  23   12   18 1
  24   14   15 1
  25   14   55 1
  26   14   56 1
  27   15   16 1
  28   15   57 1
  29   15   58 1
  30   16   17 1
  31   16   19 1
  32   16   59 1
  33   17   18 1
  34   17   60 1
  35   17   61 1
  36   18   62 1
  37   18   63 1
  38   19   20 1
  39   19   24 1
  40   19   64 1
  41   20   21 1
  42   20   65 1
  43   20   66 1
  44   21   22 1
  45   21   67 1
  46   21   68 1
  47   22   23 1
  48   22   25 1
  49   23   24 1
  50   23   69 1
  51   23   70 1
  52   24   71 1
  53   24   72 1
  54   25   73 1
  55   25   74 1
  56   25   75 1
  57   27   43 am
  58   27   29 1
  59   28   29 ar
  60   28   30 ar
  61   29   33 ar
  62   30   31 ar
  63   30   76 1
  64   31   32 ar
  65   32   33 ar
  66   32   34 1
  67   33   77 1
  68   35   36 ar
  69   35   37 ar
  70   35   43 1
  71   36   42 1
  72   36   40 ar
  73   37   38 ar
  74   37   78 1
  75   38   39 ar
  76   38   79 1
  77   39   40 ar
  78   39   41 1
  79   40   80 1
  80   43   44 2
  81   43   45 2
  82   46   47 1
  83   47   48 1
  84   47   81 1
  85   47   82 1
  86   48   49 1
  87   48   50 1
  88   48   83 1

#	End of record

