#	Name: ASD01881430
#	Creating user name:	WinNT
#	Creation time:	15. 06. 2019 19:42

#	Modifying user name:	WinNT
#	Modification time:	15. 06. 2019 19:42

#	Program:	/corina/corina34_cracker 3.40 0067  02.08.2006

@<TRIPOS>MOLECULE
ASD01881430
  66   67    0    0    0
SMALL
NO_CHARGES


@<TRIPOS>ATOM
   1 C1            -0.0163     1.3534     0.0095 C.2     
   2 C2             0.0021    -0.0041     0.0020 C.2     
   3 C3             1.2259    -0.6996     0.0275 C.2     
   4 C4             2.3616    -0.0723     0.3839 C.2     
   5 C5             2.3349     1.3735     0.8061 C.3     
   6 C6             1.2760     2.1285     0.0013 C.3     
   7 O7             2.0225     1.4562     2.1980 O.3     
   8 C8             3.1670     1.4289     3.0532 C.3     
   9 O9             3.5321    -0.7427     0.3634 O.3     
  10 C10            3.4881    -2.1331    -0.0527 C.3     
  11 C11            4.8996    -2.7222    -0.0128 C.3     
  12 C12            4.8533    -4.1874    -0.4512 C.3     
  13 C13            6.2647    -4.7765    -0.4114 C.3     
  14 O14            6.2215    -6.1449    -0.8208 O.3     
  15 C15            7.3986    -6.8191    -0.8415 C.ar    
  16 C16            7.4245    -8.1512    -1.2298 C.ar    
  17 C17            8.6240    -8.8408    -1.2520 C.ar    
  18 C18            9.8106    -8.1832    -0.8796 C.ar    
  19 C19            9.7651    -6.8377    -0.4903 C.ar    
  20 C20            8.5754    -6.1695    -0.4785 C.ar    
  21 C21            6.1475    -8.8463    -1.6264 C.3     
  22 O22            8.6555   -10.1427    -1.6301 O.3     
  23 C23           11.0872    -8.9014    -0.8981 C.2     
  24 C24           12.3560    -8.1932    -0.4984 C.3     
  25 C25           13.5358    -9.1615    -0.6051 C.3     
  26 C26           13.6606    -9.6564    -2.0475 C.3     
  27 O27           11.1231   -10.0664    -1.2353 O.2     
  28 C28           14.8240    -8.4426    -0.1993 C.3     
  29 C29           13.3026   -10.3540     0.3248 C.3     
  30 C30           -1.2481     2.0400     0.0190 C.2     
  31 O31           -2.2931     1.4155     0.0206 O.2     
  32 O32           -1.2685     3.3900     0.0265 O.3     
  33 H33           -0.9274    -0.5535    -0.0233 H       
  34 H34            1.2532    -1.7454    -0.2408 H       
  35 H35            3.3127     1.8211     0.6281 H       
  36 H36            1.6192     2.2505    -1.0260 H       
  37 H37            1.1132     3.1097     0.4473 H       
  38 H38            2.8456     1.4958     4.0926 H       
  39 H39            3.7123     0.4976     2.9008 H       
  40 H40            3.8160     2.2726     2.8186 H       
  41 H41            2.8412    -2.6939     0.6219 H       
  42 H42            3.0965    -2.1964    -1.0679 H       
  43 H43            5.5465    -2.1614    -0.6874 H       
  44 H44            5.2912    -2.6590     1.0024 H       
  45 H45            4.2063    -4.7482     0.2233 H       
  46 H46            4.4617    -4.2506    -1.4665 H       
  47 H47            6.9117    -4.2157    -1.0859 H       
  48 H48            6.6563    -4.7132     0.6039 H       
  49 H49           10.6730    -6.3281    -0.2034 H       
  50 H50            8.5459    -5.1314    -0.1820 H       
  51 H51            5.9862    -8.7265    -2.6977 H       
  52 H52            6.2214    -9.9069    -1.3864 H       
  53 H53            5.3111    -8.4080    -1.0819 H       
  54 H54            8.7909   -10.2737    -2.5786 H       
  55 H55           12.5222    -7.3437    -1.1608 H       
  56 H56           12.2671    -7.8407     0.5292 H       
  57 H57           13.8268    -8.8068    -2.7099 H       
  58 H58           14.5011   -10.3462    -2.1235 H       
  59 H59           12.7429   -10.1685    -2.3366 H       
  60 H60           14.7350    -8.0901     0.8283 H       
  61 H61           15.6645    -9.1325    -0.2753 H       
  62 H62           14.9901    -7.5931    -0.8617 H       
  63 H63           12.3849   -10.8662     0.0357 H       
  64 H64           14.1431   -11.0438     0.2488 H       
  65 H65           13.2137   -10.0015     1.3524 H       
  66 H66           -2.1577     3.7700     0.0327 H       
@<TRIPOS>BOND
   1    1    2 2
   2    1    6 1
   3    1   30 1
   4    2    3 1
   5    2   33 1
   6    3    4 2
   7    3   34 1
   8    4    5 1
   9    4    9 1
  10    5    6 1
  11    5    7 1
  12    5   35 1
  13    6   36 1
  14    6   37 1
  15    7    8 1
  16    8   38 1
  17    8   39 1
  18    8   40 1
  19    9   10 1
  20   10   11 1
  21   10   41 1
  22   10   42 1
  23   11   12 1
  24   11   43 1
  25   11   44 1
  26   12   13 1
  27   12   45 1
  28   12   46 1
  29   13   14 1
  30   13   47 1
  31   13   48 1
  32   14   15 1
  33   15   16 ar
  34   15   20 ar
  35   16   17 ar
  36   16   21 1
  37   17   18 ar
  38   17   22 1
  39   18   19 ar
  40   18   23 1
  41   19   20 ar
  42   19   49 1
  43   20   50 1
  44   21   51 1
  45   21   52 1
  46   21   53 1
  47   22   54 1
  48   23   24 1
  49   23   27 2
  50   24   25 1
  51   24   55 1
  52   24   56 1
  53   25   26 1
  54   25   28 1
  55   25   29 1
  56   26   57 1
  57   26   58 1
  58   26   59 1
  59   28   60 1
  60   28   61 1
  61   28   62 1
  62   29   63 1
  63   29   64 1
  64   29   65 1
  65   30   31 2
  66   30   32 1
  67   32   66 1

#	End of record

