#	Name: ASD04882546
#	Creating user name:	WinNT
#	Creation time:	15. 06. 2019 20:55

#	Modifying user name:	WinNT
#	Modification time:	15. 06. 2019 20:55

#	Program:	/corina/corina34_cracker 3.40 0067  02.08.2006

@<TRIPOS>MOLECULE
ASD04882546
  79   84    0    0    0
SMALL
NO_CHARGES


@<TRIPOS>ATOM
   1 C1            -0.2232     1.4426     0.1080 C.ar    
   2 C2             0.0346     0.0708     0.0382 C.ar    
   3 C3            -1.0179    -0.8375     0.0469 C.ar    
   4 C4            -2.3178    -0.3892     0.1242 C.ar    
   5 C5            -2.5825     0.9814     0.1947 C.ar    
   6 C6            -1.5260     1.8964     0.1914 C.ar    
   7 N7             1.3474    -0.3869    -0.0405 N.3     
   8 C8             1.9686     0.0124    -1.3098 C.3     
   9 C9             1.4094    -1.8421     0.1464 C.3     
  10 C10            2.8722    -2.2890     0.1991 C.3     
  11 C11            3.5691    -1.8930    -1.1055 C.3     
  12 C12            3.4480    -0.3792    -1.3005 C.3     
  13 C13           -3.9751     1.4614     0.2775 C.2     
  14 O14           -4.2045     2.6539     0.3388 O.2     
  15 N15           -4.9930     0.5781     0.2851 N.am    
  16 N16            0.8386     2.3569     0.0992 N.am    
  17 C17            5.0247    -2.2770    -1.0355 C.ar    
  18 C18            0.6884     3.5584    -0.4928 C.2     
  19 C19            1.7585     4.5673    -0.3945 C.2     
  20 C20            5.7076    -2.6111    -2.1900 C.ar    
  21 O21           -0.3300     3.8100    -1.1082 O.2     
  22 C22            7.0428    -2.9633    -2.1258 C.ar    
  23 C23            7.6951    -2.9811    -0.9072 C.ar    
  24 C24            7.0124    -2.6462     0.2472 C.ar    
  25 C25            5.6784    -2.2897     0.1825 C.ar    
  26 C26           -6.3759     1.0547     0.3673 C.3     
  27 C27           -7.3292    -0.1420     0.3587 C.3     
  28 C28           -8.7734     0.3558     0.4445 C.3     
  29 N29           -9.6861    -0.7901     0.4363 N.am    
  30 C30          -10.1481    -1.4895     1.6410 C.3     
  31 C31          -10.7057    -2.8418     1.1441 C.3     
  32 C32          -11.0973    -2.5050    -0.3133 C.3     
  33 C33          -10.2127    -1.3323    -0.6753 C.2     
  34 O34          -10.0033    -0.9427    -1.8046 O.2     
  35 C35            1.7456     5.8152    -0.9376 C.2     
  36 O36            2.9100     6.3972    -0.6087 O.3     
  37 C37            3.6227     5.5267     0.1202 C.2     
  38 N38            2.9426     4.4286     0.2613 N.2     
  39 C39            4.9937     5.7834     0.6908 C.3     
  40 C40            6.1200     6.1039    -0.2938 C.3     
  41 C41            5.5435     7.2079     0.5948 C.3     
  42 O42            2.9484    -2.5670    -2.2021 O.3     
  43 H43           -0.8157    -1.8970    -0.0075 H       
  44 H44           -3.1332    -1.0972     0.1300 H       
  45 H45           -1.7275     2.9560     0.2462 H       
  46 H46            1.4649    -0.4910    -2.1349 H       
  47 H47            1.8794     1.0916    -1.4341 H       
  48 H48            0.9140    -2.1098     1.0797 H       
  49 H49            0.9083    -2.3368    -0.6856 H       
  50 H50            3.3704    -1.8052     1.0393 H       
  51 H51            2.9178    -3.3711     0.3222 H       
  52 H52            3.9052    -0.0967    -2.2488 H       
  53 H53            3.9554     0.1347    -0.4840 H       
  54 H54           -4.8100    -0.3733     0.2362 H       
  55 H55            1.6817     2.1252     0.5192 H       
  56 H56            5.1980    -2.5972    -3.1421 H       
  57 H57            7.5762    -3.2250    -3.0277 H       
  58 H58            8.7381    -3.2570    -0.8569 H       
  59 H59            7.5220    -2.6604     1.1993 H       
  60 H60            5.1450    -2.0280     1.0843 H       
  61 H61           -6.5111     1.6203     1.2893 H       
  62 H62           -6.5904     1.6963    -0.4873 H       
  63 H63           -7.1940    -0.7076    -0.5632 H       
  64 H64           -7.1146    -0.7836     1.2133 H       
  65 H65           -8.9085     0.9213     1.3665 H       
  66 H66           -8.9879     0.9974    -0.4101 H       
  67 H67           -9.3152    -1.6533     2.3247 H       
  68 H68          -10.9334    -0.9155     2.1327 H       
  69 H69           -9.9377    -3.6147     1.1730 H       
  70 H70          -11.5792    -3.1402     1.7238 H       
  71 H71          -10.8976    -3.3534    -0.9678 H       
  72 H72          -12.1472    -2.2175    -0.3695 H       
  73 H73            0.9502     6.2538    -1.5219 H       
  74 H74            5.2501     5.2033     1.5773 H       
  75 H75            7.1175     5.7350    -0.0549 H       
  76 H76            5.8695     6.1291    -1.3543 H       
  77 H77            4.9136     7.9595     0.1188 H       
  78 H78            6.1617     7.5654     1.4183 H       
  79 H79            3.3402    -2.3623    -3.0621 H       
@<TRIPOS>BOND
   1    1    2 ar
   2    1   16 1
   3    1    6 ar
   4    2    3 ar
   5    2    7 1
   6    3    4 ar
   7    3   43 1
   8    4    5 ar
   9    4   44 1
  10    5    6 ar
  11    5   13 1
  12    6   45 1
  13    7    8 1
  14    7    9 1
  15    8   12 1
  16    8   46 1
  17    8   47 1
  18    9   10 1
  19    9   48 1
  20    9   49 1
  21   10   11 1
  22   10   50 1
  23   10   51 1
  24   11   12 1
  25   11   17 1
  26   11   42 1
  27   12   52 1
  28   12   53 1
  29   13   14 2
  30   13   15 am
  31   15   26 1
  32   15   54 1
  33   16   18 am
  34   16   55 1
  35   17   20 ar
  36   17   25 ar
  37   18   19 1
  38   18   21 2
  39   19   35 2
  40   19   38 1
  41   20   22 ar
  42   20   56 1
  43   22   23 ar
  44   22   57 1
  45   23   24 ar
  46   23   58 1
  47   24   25 ar
  48   24   59 1
  49   25   60 1
  50   26   27 1
  51   26   61 1
  52   26   62 1
  53   27   28 1
  54   27   63 1
  55   27   64 1
  56   28   29 1
  57   28   65 1
  58   28   66 1
  59   29   30 1
  60   29   33 am
  61   30   31 1
  62   30   67 1
  63   30   68 1
  64   31   32 1
  65   31   69 1
  66   31   70 1
  67   32   33 1
  68   32   71 1
  69   32   72 1
  70   33   34 2
  71   35   36 1
  72   35   73 1
  73   36   37 1
  74   37   38 2
  75   37   39 1
  76   39   40 1
  77   39   41 1
  78   39   74 1
  79   40   41 1
  80   40   75 1
  81   40   76 1
  82   41   77 1
  83   41   78 1
  84   42   79 1

#	End of record

