#	Name: ASD05513004
#	Creating user name:	WinNT
#	Creation time:	15. 06. 2019 21:01

#	Modifying user name:	WinNT
#	Modification time:	15. 06. 2019 21:01

#	Program:	/corina/corina34_cracker 3.40 0067  02.08.2006

@<TRIPOS>MOLECULE
ASD05513004
  52   56    0    0    0
SMALL
NO_CHARGES


@<TRIPOS>ATOM
   1 C1            -0.6108     1.0269    -0.7957 C.ar    
   2 C2            -0.6586    -0.3534    -0.7382 C.ar    
   3 C3            -1.8789    -1.0022    -0.7095 C.ar    
   4 C4            -3.0515    -0.2707    -0.7378 C.ar    
   5 C5            -3.0037     1.1097    -0.7943 C.ar    
   6 C6            -1.7834     1.7587    -0.8186 C.ar    
   7 C7            -4.2820     1.9072    -0.8256 C.3     
   8 N8            -3.9649     3.3352    -0.9065 N.am    
   9 C9             0.7195     1.7342    -0.8270 C.3     
  10 N10            0.5017     3.1808    -0.9044 N.am    
  11 C11            0.6197    -1.1510    -0.7074 C.3     
  12 C12           -4.3818    -0.9780    -0.7075 C.3     
  13 C13           -3.7470     3.9985    -2.0551 C.2     
  14 C14           -3.4580     5.4277    -1.7033 C.2     
  15 C15           -3.5409     5.4780    -0.2318 C.ar    
  16 C16           -3.8567     4.1785     0.1969 C.ar    
  17 C17            0.4532     4.0272     0.2009 C.ar    
  18 C18            0.2302     5.3467    -0.2248 C.ar    
  19 C19            0.1355     5.3045    -1.6958 C.2     
  20 C20            0.3292     3.8602    -2.0514 C.2     
  21 O21           -0.0532     6.2343    -2.4525 O.2     
  22 O22            0.3237     3.3900    -3.1696 O.2     
  23 O23           -3.7779     3.5272    -3.1725 O.2     
  24 O24           -3.2101     6.3414    -2.4625 O.2     
  25 C25            0.5844     3.7712     1.5597 C.ar    
  26 C26            0.4957     4.8044     2.4736 C.ar    
  27 C27            0.2753     6.1049     2.0512 C.ar    
  28 C28            0.1427     6.3819     0.7058 C.ar    
  29 C29           -3.3757     6.5055     0.6967 C.ar    
  30 C30           -3.5191     6.2398     2.0433 C.ar    
  31 C31           -3.8256     4.9580     2.4690 C.ar    
  32 C32           -3.9975     3.9338     1.5568 C.ar    
  33 H33           -1.9162    -2.0807    -0.6654 H       
  34 H34           -1.7461     2.8371    -0.8628 H       
  35 H35           -4.8707     1.6160    -1.6955 H       
  36 H36           -4.8539     1.7128     0.0817 H       
  37 H37            1.2776     1.4987     0.0792 H       
  38 H38            1.2856     1.4049    -1.6983 H       
  39 H39            0.9828    -1.2159     0.3183 H       
  40 H40            0.4315    -2.1540    -1.0904 H       
  41 H41            1.3694    -0.6599    -1.3278 H       
  42 H42           -4.6655    -1.1742     0.3265 H       
  43 H43           -5.1379    -0.3502    -1.1789 H       
  44 H44           -4.3042    -1.9213    -1.2482 H       
  45 H45            0.7558     2.7618     1.9033 H       
  46 H46            0.5990     4.5954     3.5281 H       
  47 H47            0.2073     6.9031     2.7755 H       
  48 H48           -0.0294     7.3955     0.3750 H       
  49 H49           -3.1364     7.5046     0.3634 H       
  50 H50           -3.3918     7.0322     2.7660 H       
  51 H51           -3.9359     4.7575     3.5245 H       
  52 H52           -4.2367     2.9391     1.9028 H       
@<TRIPOS>BOND
   1    1    2 ar
   2    1    9 1
   3    1    6 ar
   4    2    3 ar
   5    2   11 1
   6    3    4 ar
   7    3   33 1
   8    4    5 ar
   9    4   12 1
  10    5    6 ar
  11    5    7 1
  12    6   34 1
  13    7    8 1
  14    7   35 1
  15    7   36 1
  16    8   13 am
  17    8   16 1
  18    9   10 1
  19    9   37 1
  20    9   38 1
  21   10   17 1
  22   10   20 am
  23   11   39 1
  24   11   40 1
  25   11   41 1
  26   12   42 1
  27   12   43 1
  28   12   44 1
  29   13   14 1
  30   13   23 2
  31   14   15 1
  32   14   24 2
  33   15   16 ar
  34   15   29 ar
  35   16   32 ar
  36   17   18 ar
  37   17   25 ar
  38   18   19 1
  39   18   28 ar
  40   19   20 1
  41   19   21 2
  42   20   22 2
  43   25   26 ar
  44   25   45 1
  45   26   27 ar
  46   26   46 1
  47   27   28 ar
  48   27   47 1
  49   28   48 1
  50   29   30 ar
  51   29   49 1
  52   30   31 ar
  53   30   50 1
  54   31   32 ar
  55   31   51 1
  56   32   52 1

#	End of record

