#	Name: ASD01940545
#	Creating user name:	WinNT
#	Creation time:	15. 06. 2019 20:12

#	Modifying user name:	WinNT
#	Modification time:	15. 06. 2019 20:12

#	Program:	/corina/corina34_cracker 3.40 0067  02.08.2006

@<TRIPOS>MOLECULE
ASD01940545
  12   13    0    0    0
SMALL
NO_CHARGES


@<TRIPOS>ATOM
   1 C1            -0.0170     1.4047     0.0098 C.2     
   2 C2             0.0021    -0.0041     0.0020 C.2     
   3 N3             1.1746     2.0813     0.0020 N.pl3   
   4 N4             1.1531    -0.6361    -0.0124 N.2     
   5 C5             2.3098     0.0290    -0.0199 C.2     
   6 C6             2.3409     1.3806    -0.0129 C.2     
   7 N7             0.8315     3.4371     0.0121 N.2     
   8 N8            -0.4579     3.4989     0.0245 N.2     
   9 N9            -0.9720     2.3198     0.0186 N.2     
  10 Cl10          -1.4858    -0.8983     0.0120 Cl      
  11 H11            3.2383    -0.5225    -0.0317 H       
  12 H12            3.2869     1.9017    -0.0195 H       
@<TRIPOS>BOND
   1    1    2 1
   2    1    3 1
   3    1    9 2
   4    2    4 2
   5    2   10 1
   6    3    6 1
   7    3    7 1
   8    4    5 1
   9    5    6 2
  10    5   11 1
  11    6   12 1
  12    7    8 2
  13    8    9 1

#	End of record

