#	Name: ASD02588007
#	Creating user name:	WinNT
#	Creation time:	15. 06. 2019 20:25

#	Modifying user name:	WinNT
#	Modification time:	15. 06. 2019 20:25

#	Program:	/corina/corina34_cracker 3.40 0067  02.08.2006

@<TRIPOS>MOLECULE
ASD02588007
  32   34    0    0    0
SMALL
NO_CHARGES


@<TRIPOS>ATOM
   1 C1            -0.0165     1.3674     0.0096 C.2     
   2 N2             0.0021    -0.0041     0.0020 N.pl3   
   3 N3            -1.2203    -0.6902     0.0096 N.2     
   4 C4            -2.3450    -0.0235     0.0235 C.2     
   5 N5            -2.3783     1.3062     0.0306 N.2     
   6 C6            -1.2697     2.0258     0.0303 C.2     
   7 C7             1.2975     1.8207    -0.0006 C.2     
   8 C8             2.1213     0.7088    -0.0144 C.2     
   9 C9             1.3042    -0.4196    -0.0126 C.2     
  10 N10           -1.3332     3.4049     0.0382 N.pl3   
  11 I11            1.9176     3.8218     0.0036 I       
  12 I12            4.2161     0.7203    -0.0349 I       
  13 I13           -4.1521    -1.0833     0.0345 I       
  14 C14            1.7469    -1.7666    -0.0241 C.2     
  15 O15            2.9379    -2.0155    -0.0372 O.2     
  16 O16            0.8474    -2.7726    -0.0204 O.3     
  17 C17            1.3640    -4.1049    -0.0325 C.3     
  18 C18            0.2210    -5.0870    -0.0263 C.ar    
  19 C19           -0.3152    -5.5311    -1.2205 C.ar    
  20 C20           -1.3637    -6.4319    -1.2148 C.ar    
  21 C21           -1.8758    -6.8889    -0.0148 C.ar    
  22 C22           -1.3390    -6.4455     1.1794 C.ar    
  23 C23           -0.2876    -5.5480     1.1736 C.ar    
  24 H24           -2.1946     3.8508     0.0439 H       
  25 H25           -0.5163     3.9281     0.0379 H       
  26 H26            1.9655    -4.2532    -0.9293 H       
  27 H27            1.9833    -4.2625     0.8505 H       
  28 H28            0.0849    -5.1741    -2.1580 H       
  29 H29           -1.7831    -6.7784    -2.1478 H       
  30 H30           -2.6954    -7.5922    -0.0104 H       
  31 H31           -1.7393    -6.8023     2.1169 H       
  32 H32            0.1342    -5.2044     2.1066 H       
@<TRIPOS>BOND
   1    1    2 1
   2    1    7 2
   3    1    6 1
   4    2    3 1
   5    2    9 1
   6    3    4 2
   7    4    5 1
   8    4   13 1
   9    5    6 2
  10    6   10 1
  11    7    8 1
  12    7   11 1
  13    8    9 2
  14    8   12 1
  15    9   14 1
  16   10   24 1
  17   10   25 1
  18   14   15 2
  19   14   16 1
  20   16   17 1
  21   17   18 1
  22   17   26 1
  23   17   27 1
  24   18   19 ar
  25   18   23 ar
  26   19   20 ar
  27   19   28 1
  28   20   21 ar
  29   20   29 1
  30   21   22 ar
  31   21   30 1
  32   22   23 ar
  33   22   31 1
  34   23   32 1

#	End of record

