#	Name: ASD01140471
#	Creating user name:	WinNT
#	Creation time:	15. 06. 2019 19:00

#	Modifying user name:	WinNT
#	Modification time:	15. 06. 2019 19:00

#	Program:	/corina/corina34_cracker 3.40 0067  02.08.2006

@<TRIPOS>MOLECULE
ASD01140471
  23   23    0    0    0
SMALL
NO_CHARGES


@<TRIPOS>ATOM
   1 N1            -0.0485     1.1050     0.4127 N.ar    
   2 C2             0.0927    -0.1505     0.0486 C.ar    
   3 C3             1.3411    -0.6260    -0.3722 C.ar    
   4 N4             2.3874     0.1888    -0.4057 N.ar    
   5 C5             2.2508     1.4575    -0.0397 C.ar    
   6 C6             0.9976     1.9312     0.3822 C.ar    
   7 C7             0.8394     3.3377     0.7900 C.2     
   8 O8             1.8125     4.0634     0.8606 O.2     
   9 N9            -0.3839     3.8202     1.0850 N.am    
  10 C10           -0.5322     5.1382     1.4672 C.2     
  11 N11           -1.7799     5.6303     1.7681 N.pl3   
  12 N12            0.5099     5.9154     1.5428 N.2     
  13 N13            1.4835    -1.9488    -0.7533 N.pl3   
  14 N14            3.3392     2.3099    -0.0728 N.pl3   
  15 Cl15          -1.2724    -1.2222     0.0900 Cl      
  16 H16           -1.1602     3.2413     1.0288 H       
  17 H17           -2.5561     5.0514     1.7118 H       
  18 H18           -1.8841     6.5565     2.0367 H       
  19 H19            0.4057     6.8416     1.8114 H       
  20 H20            0.7192    -2.5456    -0.7288 H       
  21 H21            2.3477    -2.2792    -1.0448 H       
  22 H22            4.2386     1.9503    -0.0217 H       
  23 H23            3.2032     3.2675    -0.1470 H       
@<TRIPOS>BOND
   1    1    2 ar
   2    1    6 ar
   3    2    3 ar
   4    2   15 1
   5    3    4 ar
   6    3   13 1
   7    4    5 ar
   8    5    6 ar
   9    5   14 1
  10    6    7 1
  11    7    8 2
  12    7    9 am
  13    9   10 1
  14    9   16 1
  15   10   11 1
  16   10   12 2
  17   11   17 1
  18   11   18 1
  19   12   19 1
  20   13   20 1
  21   13   21 1
  22   14   22 1
  23   14   23 1

#	End of record

