#	Name: ASD03330904
#	Creating user name:	WinNT
#	Creation time:	15. 06. 2019 20:38

#	Modifying user name:	WinNT
#	Modification time:	15. 06. 2019 20:38

#	Program:	/corina/corina34_cracker 3.40 0067  02.08.2006

@<TRIPOS>MOLECULE
ASD03330904
  59   61    0    0    0
SMALL
NO_CHARGES


@<TRIPOS>ATOM
   1 N1             0.1688     0.9758    -0.0181 N.pl3   
   2 C2             0.0597    -0.3563     0.1935 C.2     
   3 C3             1.1869    -1.2804     0.5740 C.3     
   4 N4             1.9556    -0.6773     1.6737 N.3     
   5 C5             3.0276     0.1796     1.1629 C.3     
   6 C6             2.6056     0.8635    -0.1346 C.3     
   7 C7             1.3957     1.7650     0.1249 C.3     
   8 C8            -1.0655     1.4376    -0.3726 C.2     
   9 N9            -1.9077     0.4315    -0.3621 N.2     
  10 C10           -1.2447    -0.6917    -0.0134 C.2     
  11 C11           -1.8272    -2.0390     0.1191 C.2     
  12 O12           -1.1231    -2.9770     0.4411 O.2     
  13 N13           -3.1402    -2.2317    -0.1164 N.am    
  14 C14            2.4899    -1.7103     2.5711 C.3     
  15 C15           -0.9436     3.8984     0.0812 C.ar    
  16 C16           -1.3983     2.8386    -0.7120 C.ar    
  17 C17           -2.1767     3.1413    -1.8358 C.ar    
  18 C18           -2.4629     4.4668    -2.1151 C.ar    
  19 N19           -2.0125     5.4339    -1.3386 N.ar    
  20 C20           -1.2763     5.1894    -0.2710 C.ar    
  21 C21           -4.9527    -3.6718    -0.8444 C.2     
  22 C22           -3.7192    -3.5710     0.0154 C.3     
  23 C23           -4.0945    -3.8228     1.4771 C.3     
  24 C24           -5.1680    -2.8214     1.9078 C.3     
  25 O25           -5.5936    -2.6756    -1.1047 O.2     
  26 N26           -5.3438    -4.8690    -1.3242 N.am    
  27 C27           -6.6002    -4.9850    -2.0686 C.3     
  28 C28           -4.6353    -5.2462     1.6269 C.3     
  29 C29           -2.8554    -3.6527     2.3584 C.3     
  30 Cl30          -3.4260     4.8614    -3.5045 Cl      
  31 F31           -2.6406     2.1558    -2.6351 F       
  32 H32            0.7793    -2.2383     0.8971 H       
  33 H33            1.8392    -1.4325    -0.2858 H       
  34 H34            3.2648     0.9392     1.9077 H       
  35 H35            3.9135    -0.4274     0.9764 H       
  36 H36            3.4320     1.4657    -0.5122 H       
  37 H37            2.3421     0.1071    -0.8739 H       
  38 H38            1.3892     2.5824    -0.5961 H       
  39 H39            1.4529     2.1696     1.1353 H       
  40 H40           -3.7018    -1.4837    -0.3732 H       
  41 H41            3.0896    -2.4161     1.9964 H       
  42 H42            3.1117    -1.2424     3.3344 H       
  43 H43            1.6648    -2.2390     3.0485 H       
  44 H44           -0.3442     3.7075     0.9591 H       
  45 H45           -0.9293     6.0126     0.3358 H       
  46 H46           -2.9905    -4.3151    -0.3060 H       
  47 H47           -6.0508    -2.9426     1.2800 H       
  48 H48           -5.4354    -3.0008     2.9492 H       
  49 H49           -4.7827    -1.8073     1.8011 H       
  50 H50           -4.7933    -5.6540    -1.1766 H       
  51 H51           -7.4290    -4.6724    -1.4335 H       
  52 H52           -6.5591    -4.3479    -2.9522 H       
  53 H53           -6.7472    -6.0209    -2.3742 H       
  54 H54           -3.8493    -5.9610     1.3832 H       
  55 H55           -4.9640    -5.4037     2.6541 H       
  56 H56           -5.4778    -5.3878     0.9500 H       
  57 H57           -2.4701    -2.6386     2.2517 H       
  58 H58           -3.1227    -3.8321     3.3997 H       
  59 H59           -2.0905    -4.3661     2.0515 H       
@<TRIPOS>BOND
   1    1    2 1
   2    1    7 1
   3    1    8 1
   4    2    3 1
   5    2   10 2
   6    3    4 1
   7    3   32 1
   8    3   33 1
   9    4    5 1
  10    4   14 1
  11    5    6 1
  12    5   34 1
  13    5   35 1
  14    6    7 1
  15    6   36 1
  16    6   37 1
  17    7   38 1
  18    7   39 1
  19    8    9 2
  20    8   16 1
  21    9   10 1
  22   10   11 1
  23   11   12 2
  24   11   13 am
  25   13   22 1
  26   13   40 1
  27   14   41 1
  28   14   42 1
  29   14   43 1
  30   15   16 ar
  31   15   20 ar
  32   15   44 1
  33   16   17 ar
  34   17   18 ar
  35   17   31 1
  36   18   19 ar
  37   18   30 1
  38   19   20 ar
  39   20   45 1
  40   21   25 2
  41   21   26 am
  42   21   22 1
  43   22   23 1
  44   22   46 1
  45   23   24 1
  46   23   28 1
  47   23   29 1
  48   24   47 1
  49   24   48 1
  50   24   49 1
  51   26   27 1
  52   26   50 1
  53   27   51 1
  54   27   52 1
  55   27   53 1
  56   28   54 1
  57   28   55 1
  58   28   56 1
  59   29   57 1
  60   29   58 1
  61   29   59 1

#	End of record

