#	Name: ASD04590394
#	Creating user name:	WinNT
#	Creation time:	15. 06. 2019 20:50

#	Modifying user name:	WinNT
#	Modification time:	15. 06. 2019 20:50

#	Program:	/corina/corina34_cracker 3.40 0067  02.08.2006

@<TRIPOS>MOLECULE
ASD04590394
  39   42    0    0    0
SMALL
NO_CHARGES


@<TRIPOS>ATOM
   1 C1            -0.0168     1.3845     0.0097 C.ar    
   2 C2             0.0021    -0.0041     0.0020 C.ar    
   3 C3            -2.3905    -0.0459     0.0251 C.ar    
   4 C4            -2.4099     1.3599     0.0439 C.ar    
   5 C5            -1.2160     2.0673     0.0305 C.ar    
   6 N6            -3.6800    -0.4646     0.0441 N.2     
   7 C7            -4.4799     0.5738     0.0729 C.2     
   8 N8            -3.7417     1.7271     0.0740 N.pl3   
   9 C9            -5.9557     0.5092     0.0997 C.2     
  10 C10           -6.7364    -0.6698     0.0990 C.2     
  11 C11           -8.0407    -0.3019     0.1281 C.2     
  12 N12           -8.0901     1.0560     0.1466 N.pl3   
  13 N13           -6.7763     1.5409     0.1341 N.2     
  14 N14           -6.2479    -1.9862     0.0729 N.am    
  15 C15           -7.1076    -3.0242     0.0756 C.2     
  16 O16           -8.3063    -2.8208     0.1006 O.2     
  17 C17           -6.5944    -4.4070     0.0481 C.ar    
  18 C18           -1.1633    -0.7165     0.0093 C.ar    
  19 C19           -5.8917    -6.3467    -1.1905 C.ar    
  20 C20           -5.6306    -7.0068    -0.0035 C.ar    
  21 C21           -5.8523    -6.3797     1.2092 C.ar    
  22 C22           -6.3326    -5.0841     1.2441 C.ar    
  23 F23           -6.5481    -4.4732     2.4297 F       
  24 C24           -6.3722    -5.0509    -1.1740 C.ar    
  25 F25           -6.6271    -4.4080    -2.3346 F       
  26 C26           -1.1268    -2.2230    -0.0001 C.3     
  27 Cl27           1.4780     2.2672     0.0001 Cl      
  28 H28            0.9476    -0.5258    -0.0102 H       
  29 H29           -1.2253     3.1472     0.0368 H       
  30 H30           -4.0888     2.6327     0.0930 H       
  31 H31           -8.8897    -0.9694     0.1348 H       
  32 H32           -8.8957     1.5959     0.1681 H       
  33 H33           -5.2918    -2.1484     0.0530 H       
  34 H34           -5.7158    -6.8438    -2.1330 H       
  35 H35           -5.2556    -8.0194    -0.0235 H       
  36 H36           -5.6461    -6.9026     2.1314 H       
  37 H37           -1.1077    -2.5924     1.0252 H       
  38 H38           -2.0127    -2.6048    -0.5075 H       
  39 H39           -0.2334    -2.5615    -0.5249 H       
@<TRIPOS>BOND
   1    1    2 ar
   2    1   27 1
   3    1    5 ar
   4    2   18 ar
   5    2   28 1
   6    3    4 ar
   7    3    6 1
   8    3   18 ar
   9    4    5 ar
  10    4    8 1
  11    5   29 1
  12    6    7 2
  13    7    8 1
  14    7    9 1
  15    8   30 1
  16    9   10 1
  17    9   13 2
  18   10   11 2
  19   10   14 1
  20   11   12 1
  21   11   31 1
  22   12   13 1
  23   12   32 1
  24   14   15 am
  25   14   33 1
  26   15   16 2
  27   15   17 1
  28   17   24 ar
  29   17   22 ar
  30   18   26 1
  31   19   20 ar
  32   19   24 ar
  33   19   34 1
  34   20   21 ar
  35   20   35 1
  36   21   22 ar
  37   21   36 1
  38   22   23 1
  39   24   25 1
  40   26   37 1
  41   26   38 1
  42   26   39 1

#	End of record

