#	Name: ASD08070039
#	Creating user name:	WinNT
#	Creation time:	15. 06. 2019 21:14

#	Modifying user name:	WinNT
#	Modification time:	15. 06. 2019 21:14

#	Program:	/corina/corina34_cracker 3.40 0067  02.08.2006

@<TRIPOS>MOLECULE
ASD08070039
  40   41    0    0    0
SMALL
NO_CHARGES


@<TRIPOS>ATOM
   1 C1            -0.0170     1.4030     0.0098 C.ar    
   2 C2             0.0021    -0.0041     0.0020 C.ar    
   3 C3            -1.2009    -0.7077     0.0101 C.ar    
   4 C4            -2.4039    -0.0084     0.0258 C.ar    
   5 C5            -2.4045     1.3925     0.0333 C.ar    
   6 C6            -1.2285     2.0848     0.0300 C.ar    
   7 N7             1.3024     1.8003    -0.0007 N.pl3   
   8 C8             2.0663     0.6740    -0.0140 C.2     
   9 N9             1.3071    -0.3820    -0.0125 N.2     
  10 C10           -3.6838    -0.7453     0.0340 C.2     
  11 N11           -4.8500    -0.0700     0.0491 N.am    
  12 O12           -3.6853    -1.9610     0.0270 O.2     
  13 C13           -6.1196    -0.8009     0.0572 C.3     
  14 C14           -7.1916     0.0610     0.6730 C.2     
  15 C15           -6.5128    -1.1561    -1.3781 C.3     
  16 O16           -6.9226     1.1718     1.0649 O.2     
  17 O17           -8.4451    -0.4054     0.7862 O.3     
  18 C18           -9.4258     0.4795     1.3892 C.3     
  19 C19           -5.4881    -2.1313    -1.9611 C.3     
  20 C20           -5.5424    -3.4506    -1.1882 C.3     
  21 C21           -5.8105    -2.3895    -3.4343 C.3     
  22 H22           -1.1995    -1.7877     0.0040 H       
  23 H23           -3.3422     1.9283     0.0451 H       
  24 H24           -1.2389     3.1647     0.0362 H       
  25 H25            1.6270     2.7144     0.0006 H       
  26 H26            3.1462     0.6593    -0.0241 H       
  27 H27           -4.8488     0.9000     0.0546 H       
  28 H28           -6.0089    -1.7151     0.6404 H       
  29 H29           -7.4988    -1.6208    -1.3803 H       
  30 H30           -6.5370    -0.2497    -1.9831 H       
  31 H31          -10.3946    -0.0189     1.4199 H       
  32 H32           -9.1139     0.7303     2.4031 H       
  33 H33           -9.5048     1.3914     0.7974 H       
  34 H34           -4.4896    -1.7021    -1.8775 H       
  35 H35           -5.3127    -3.2666    -0.1387 H       
  36 H36           -6.5409    -3.8798    -1.2718 H       
  37 H37           -4.8124    -4.1453    -1.6036 H       
  38 H38           -5.7718    -1.4496    -3.9849 H       
  39 H39           -5.0805    -3.0842    -3.8496 H       
  40 H40           -6.8090    -2.8187    -3.5178 H       
@<TRIPOS>BOND
   1    1    2 ar
   2    1    7 1
   3    1    6 ar
   4    2    3 ar
   5    2    9 1
   6    3    4 ar
   7    3   22 1
   8    4    5 ar
   9    4   10 1
  10    5    6 ar
  11    5   23 1
  12    6   24 1
  13    7    8 1
  14    7   25 1
  15    8    9 2
  16    8   26 1
  17   10   11 am
  18   10   12 2
  19   11   13 1
  20   11   27 1
  21   13   14 1
  22   13   15 1
  23   13   28 1
  24   14   16 2
  25   14   17 1
  26   15   19 1
  27   15   29 1
  28   15   30 1
  29   17   18 1
  30   18   31 1
  31   18   32 1
  32   18   33 1
  33   19   20 1
  34   19   21 1
  35   19   34 1
  36   20   35 1
  37   20   36 1
  38   20   37 1
  39   21   38 1
  40   21   39 1
  41   21   40 1

#	End of record

