#	Name: ASD01884864
#	Creating user name:	WinNT
#	Creation time:	15. 06. 2019 19:49

#	Modifying user name:	WinNT
#	Modification time:	15. 06. 2019 19:49

#	Program:	/corina/corina34_cracker 3.40 0067  02.08.2006

@<TRIPOS>MOLECULE
ASD01884864
  45   50    0    0    0
SMALL
NO_CHARGES


@<TRIPOS>ATOM
   1 C1            -0.0166     1.3722     0.0096 C.ar    
   2 C2             0.0021    -0.0041     0.0020 C.ar    
   3 C3             1.2180    -0.6885    -0.0129 C.ar    
   4 C4             2.4145     0.0301    -0.0205 C.ar    
   5 C5             2.3877     1.4055    -0.0133 C.ar    
   6 C6             1.1787     2.0916     0.0020 C.ar    
   7 C7             3.4850     2.4437    -0.0184 C.3     
   8 N8             2.7854     3.7368    -0.0053 N.pl3   
   9 N9             1.4141     3.4645     0.0066 N.pl3   
  10 C10            1.2388    -2.1696    -0.0200 C.2     
  11 C11            0.7337    -2.8702    -1.1007 C.2     
  12 C12            1.7813    -2.8826     1.0769 C.2     
  13 C13            1.7996    -4.2284     1.0683 C.2     
  14 N14            1.2982    -4.9287     0.0085 N.pl3   
  15 C15            0.7676    -4.2758    -1.0777 C.2     
  16 Cl16           0.0676    -2.0270    -2.4642 Cl      
  17 C17            1.1873    -6.2578    -0.2664 C.2     
  18 N18            0.6210    -6.3715    -1.4400 N.2     
  19 N19            0.3692    -5.2084    -1.9292 N.2     
  20 C20            1.6358    -7.3911     0.6198 C.3     
  21 C21            0.5720    -8.3873     1.0855 C.3     
  22 C22            1.6011    -8.8035     0.0325 C.3     
  23 C23            3.3797     5.0011    -0.0041 C.ar    
  24 C24            4.7626     5.1298    -0.0159 C.ar    
  25 N25            5.3268     6.3212    -0.0148 N.ar    
  26 C26            4.6114     7.4287    -0.0025 C.ar    
  27 C27            3.2295     7.3821     0.0103 C.ar    
  28 C28            2.5940     6.1515     0.0033 C.ar    
  29 H29           -0.9603     1.8973     0.0169 H       
  30 H30           -0.9265    -0.5555     0.0080 H       
  31 H31            3.3595    -0.4926    -0.0316 H       
  32 H32            4.1078     2.3410     0.8703 H       
  33 H33            4.0910     2.3500    -0.9195 H       
  34 H34            0.7193     4.1413     0.0164 H       
  35 H35            2.1820    -2.3445     1.9232 H       
  36 H36            2.2165    -4.7613     1.9101 H       
  37 H37            2.4418    -7.1542     1.3143 H       
  38 H38            0.6784    -8.8060     2.0862 H       
  39 H39           -0.4522    -8.2229     0.7509 H       
  40 H40            1.2538    -8.9129    -0.9949 H       
  41 H41            2.3844    -9.4960     0.3405 H       
  42 H42            5.3818     4.2450    -0.0258 H       
  43 H43            5.1118     8.3858    -0.0020 H       
  44 H44            2.6523     8.2948     0.0211 H       
  45 H45            1.5161     6.0854     0.0129 H       
@<TRIPOS>BOND
   1    1    2 ar
   2    1    6 ar
   3    1   29 1
   4    2    3 ar
   5    2   30 1
   6    3    4 ar
   7    3   10 1
   8    4    5 ar
   9    4   31 1
  10    5    6 ar
  11    5    7 1
  12    6    9 1
  13    7    8 1
  14    7   32 1
  15    7   33 1
  16    8    9 1
  17    8   23 1
  18    9   34 1
  19   10   11 2
  20   10   12 1
  21   11   16 1
  22   11   15 1
  23   12   13 2
  24   12   35 1
  25   13   14 1
  26   13   36 1
  27   14   15 1
  28   14   17 1
  29   15   19 2
  30   17   18 2
  31   17   20 1
  32   18   19 1
  33   20   21 1
  34   20   22 1
  35   20   37 1
  36   21   22 1
  37   21   38 1
  38   21   39 1
  39   22   40 1
  40   22   41 1
  41   23   24 ar
  42   23   28 ar
  43   24   25 ar
  44   24   42 1
  45   25   26 ar
  46   26   27 ar
  47   26   43 1
  48   27   28 ar
  49   27   44 1
  50   28   45 1

#	End of record

