#	Name: ASD03320050
#	Creating user name:	WinNT
#	Creation time:	15. 06. 2019 20:36

#	Modifying user name:	WinNT
#	Modification time:	15. 06. 2019 20:36

#	Program:	/corina/corina34_cracker 3.40 0067  02.08.2006

@<TRIPOS>MOLECULE
ASD03320050
  38   40    0    0    0
SMALL
NO_CHARGES


@<TRIPOS>ATOM
   1 C1            -0.0077     1.3433    -0.1946 C.ar    
   2 C2             0.0217    -0.0349     0.0275 C.ar    
   3 C3            -1.1539    -0.7587     0.0442 C.ar    
   4 C4            -2.3644    -0.1254    -0.1589 C.ar    
   5 C5            -2.4069     1.2505    -0.3822 C.ar    
   6 C6            -1.2278     1.9876    -0.3944 C.ar    
   7 C7             1.2512     2.1182    -0.2119 C.2     
   8 O8             1.2237     3.3180    -0.4055 O.2     
   9 N9             2.4292     1.4944    -0.0131 N.am    
  10 C10            3.6280     2.2094    -0.1264 C.ar    
  11 C11           -3.7091     1.9280    -0.6011 C.ar    
  12 C12           -4.9050     1.2061    -0.5875 C.ar    
  13 N13           -6.0429     1.8489    -0.7864 N.ar    
  14 C14           -6.0587     3.1504    -0.9952 C.ar    
  15 N15           -4.9535     3.8688    -1.0160 N.ar    
  16 C16           -3.7733     3.3061    -0.8207 C.ar    
  17 C17            3.6885     3.5338     0.2864 C.ar    
  18 C18            4.8710     4.2381     0.1748 C.ar    
  19 C19            5.9982     3.6229    -0.3500 C.ar    
  20 C20            5.9384     2.2999    -0.7631 C.ar    
  21 C21            4.7582     1.5925    -0.6464 C.ar    
  22 O22            7.1622     4.3171    -0.4600 O.3     
  23 C23            8.2831     3.6214    -1.0092 C.3     
  24 F24            7.9768     3.1933    -2.3054 F       
  25 F25            9.3889     4.4774    -1.0499 F       
  26 F26            8.5809     2.5125    -0.2099 F       
  27 H27            0.9654    -0.5355     0.1862 H       
  28 H28           -1.1267    -1.8245     0.2164 H       
  29 H29           -3.2804    -0.6973    -0.1450 H       
  30 H30           -1.2563     3.0533    -0.5670 H       
  31 H31            2.4468     0.5502     0.2085 H       
  32 H32           -4.9000     0.1395    -0.4174 H       
  33 H33           -7.0063     3.6434    -1.1544 H       
  34 H34           -2.8722     3.9012    -0.8388 H       
  35 H35            2.8109     4.0131     0.6944 H       
  36 H36            4.9183     5.2682     0.4959 H       
  37 H37            6.8161     1.8219    -1.1722 H       
  38 H38            4.7118     0.5626    -0.9680 H       
@<TRIPOS>BOND
   1    1    2 ar
   2    1    7 1
   3    1    6 ar
   4    2    3 ar
   5    2   27 1
   6    3    4 ar
   7    3   28 1
   8    4    5 ar
   9    4   29 1
  10    5    6 ar
  11    5   11 1
  12    6   30 1
  13    7    8 2
  14    7    9 am
  15    9   10 1
  16    9   31 1
  17   10   17 ar
  18   10   21 ar
  19   11   12 ar
  20   11   16 ar
  21   12   13 ar
  22   12   32 1
  23   13   14 ar
  24   14   15 ar
  25   14   33 1
  26   15   16 ar
  27   16   34 1
  28   17   18 ar
  29   17   35 1
  30   18   19 ar
  31   18   36 1
  32   19   20 ar
  33   19   22 1
  34   20   21 ar
  35   20   37 1
  36   21   38 1
  37   22   23 1
  38   23   24 1
  39   23   25 1
  40   23   26 1

#	End of record

