#	Name: ASD01870501
#	Creating user name:	WinNT
#	Creation time:	15. 06. 2019 19:39

#	Modifying user name:	WinNT
#	Modification time:	15. 06. 2019 19:39

#	Program:	/corina/corina34_cracker 3.40 0067  02.08.2006

@<TRIPOS>MOLECULE
ASD01870501
  40   43    0    0    0
SMALL
NO_CHARGES


@<TRIPOS>ATOM
   1 C1            -0.0304     1.3996    -0.2320 C.ar    
   2 C2            -0.0273     0.0160    -0.1041 C.ar    
   3 C3             1.1549    -0.6624     0.1415 C.ar    
   4 C4             2.3486     0.0292     0.2628 C.ar    
   5 C5             2.3598     1.4099     0.1373 C.ar    
   6 C6             1.1568     2.1020    -0.1128 C.ar    
   7 C7             3.4136     2.4426     0.2050 C.2     
   8 N8             2.8480     3.6468     0.0062 N.am    
   9 C9             1.5216     3.5327    -0.1870 C.2     
  10 O10            0.7531     4.4509    -0.3903 O.2     
  11 O11            4.5939     2.2386     0.4065 O.2     
  12 C12            3.5493     4.8624     0.0024 C.ar    
  13 C13            4.0792     5.3543    -1.1827 C.ar    
  14 C14            4.7690     6.5500    -1.1869 C.ar    
  15 C15            4.9330     7.2619    -0.0053 C.ar    
  16 C16            4.4027     6.7706     1.1805 C.ar    
  17 C17            3.7082     5.5763     1.1837 C.ar    
  18 Cl18           3.0399     4.9645     2.6645 Cl      
  19 N19            5.6328     8.4737    -0.0099 N.am    
  20 C20            6.4054     8.8097     1.0421 C.2     
  21 C21            7.2223    10.0353     0.9948 C.2     
  22 O22            6.4284     8.1013     2.0305 O.2     
  23 N23            8.0448    10.4880     1.9881 N.pl3   
  24 C24            8.6086    11.6424     1.5431 C.2     
  25 C25            8.1225    11.8684     0.2979 C.2     
  26 N26            7.2892    10.8786    -0.0135 N.2     
  27 C27            8.2748     9.8504     3.2869 C.3     
  28 F28           -1.1845    -0.6716    -0.2196 F       
  29 H29           -0.9538     1.9242    -0.4279 H       
  30 H30            1.1457    -1.7379     0.2395 H       
  31 H31            3.2674    -0.5051     0.4547 H       
  32 H32            3.9520     4.8012    -2.1015 H       
  33 H33            5.1817     6.9319    -2.1090 H       
  34 H34            4.5304     7.3237     2.0993 H       
  35 H35            5.5618     9.0719    -0.7701 H       
  36 H36            9.3108    12.2625     2.0804 H       
  37 H37            8.3724    12.7069    -0.3353 H       
  38 H38            9.1114     9.1562     3.2078 H       
  39 H39            8.5048    10.6134     4.0306 H       
  40 H40            7.3792     9.3072     3.5887 H       
@<TRIPOS>BOND
   1    1    2 ar
   2    1    6 ar
   3    1   29 1
   4    2    3 ar
   5    2   28 1
   6    3    4 ar
   7    3   30 1
   8    4    5 ar
   9    4   31 1
  10    5    7 1
  11    5    6 ar
  12    6    9 1
  13    7    8 am
  14    7   11 2
  15    8    9 am
  16    8   12 1
  17    9   10 2
  18   12   13 ar
  19   12   17 ar
  20   13   14 ar
  21   13   32 1
  22   14   15 ar
  23   14   33 1
  24   15   16 ar
  25   15   19 1
  26   16   17 ar
  27   16   34 1
  28   17   18 1
  29   19   20 am
  30   19   35 1
  31   20   21 1
  32   20   22 2
  33   21   23 1
  34   21   26 2
  35   23   24 1
  36   23   27 1
  37   24   25 2
  38   24   36 1
  39   25   26 1
  40   25   37 1
  41   27   38 1
  42   27   39 1
  43   27   40 1

#	End of record

