#	Name: ASD07930456
#	Creating user name:	WinNT
#	Creation time:	15. 06. 2019 21:12

#	Modifying user name:	WinNT
#	Modification time:	15. 06. 2019 21:12

#	Program:	/corina/corina34_cracker 3.40 0067  02.08.2006

@<TRIPOS>MOLECULE
ASD07930456
  45   47    0    0    0
SMALL
NO_CHARGES


@<TRIPOS>ATOM
   1 N1             0.0005     1.2712     0.0036 N.2     
   2 N2            -1.1611    -0.7565     0.0076 N.pl3   
   3 C3            -1.3888    -1.7915    -1.0064 C.3     
   4 C4            -0.2711    -2.8398    -0.9192 C.3     
   5 S5             1.3268    -1.9883    -1.1092 S.o2    
   6 N6             1.2083    -0.7373    -0.0149 N.am    
   7 C7             0.0133    -0.0321    -0.0009 C.2     
   8 C8            -1.3840    -1.1539    -2.3972 C.3     
   9 C9            -2.7200    -2.4534    -0.7598 C.ar    
  10 C10           -3.4610    -2.1182     0.3561 C.ar    
  11 C11           -4.6881    -2.7283     0.5827 C.ar    
  12 C12           -5.1670    -3.6742    -0.3140 C.ar    
  13 C13           -4.4225    -4.0065    -1.4290 C.ar    
  14 C14           -3.2020    -3.3933    -1.6557 C.ar    
  15 N15           -5.4404    -2.3905     1.7132 N.am    
  16 C16           -6.7862    -2.3667     1.6446 C.2     
  17 O17           -7.3436    -2.5428     0.5790 O.2     
  18 O18            2.3891    -2.7939    -0.6176 O.2     
  19 O19            1.4101    -1.3489    -2.3755 O.2     
  20 F20           -2.4754    -3.7197    -2.7469 F       
  21 C21           -7.5857    -2.1258     2.8674 C.ar    
  22 N22           -6.9709    -1.9341     4.0282 N.ar    
  23 C23           -7.6430    -1.7171     5.1374 C.ar    
  24 C24           -9.0297    -1.6809     5.1341 C.ar    
  25 C25           -9.7120    -1.8765     3.9416 C.ar    
  26 C26           -8.9768    -2.0968     2.7885 C.ar    
  27 Cl27          -9.9028    -1.3944     6.6070 Cl      
  28 C28            2.3111    -0.3990     0.8883 C.3     
  29 H29            2.9602     0.3346     0.4102 H       
  30 H30            1.9095     0.0182     1.8117 H       
  31 H31            2.8840    -1.2982     1.1148 H       
  32 H32            0.8358     1.7644    -0.0028 H       
  33 H33           -1.8367    -0.5788     0.6806 H       
  34 H34           -0.3091    -3.3379     0.0496 H       
  35 H35           -0.3931    -3.5741    -1.7155 H       
  36 H36           -0.4200    -0.6773    -2.5751 H       
  37 H37           -1.5532    -1.9235    -3.1503 H       
  38 H38           -2.1753    -0.4067    -2.4572 H       
  39 H39           -3.0865    -1.3826     1.0525 H       
  40 H40           -6.1207    -4.1500    -0.1395 H       
  41 H41           -4.7944    -4.7424    -2.1265 H       
  42 H42           -4.9933    -2.1735     2.5462 H       
  43 H43           -7.1082    -1.5654     6.0633 H       
  44 H44          -10.7913    -1.8530     3.9125 H       
  45 H45           -9.4750    -2.2525     1.8429 H       
@<TRIPOS>BOND
   1    1    7 2
   2    1   32 1
   3    2    3 1
   4    2    7 1
   5    2   33 1
   6    3    4 1
   7    3    8 1
   8    3    9 1
   9    4    5 1
  10    4   34 1
  11    4   35 1
  12    5    6 am
  13    5   18 2
  14    5   19 2
  15    6    7 1
  16    6   28 1
  17    8   36 1
  18    8   37 1
  19    8   38 1
  20    9   10 ar
  21    9   14 ar
  22   10   11 ar
  23   10   39 1
  24   11   12 ar
  25   11   15 1
  26   12   13 ar
  27   12   40 1
  28   13   14 ar
  29   13   41 1
  30   14   20 1
  31   15   16 am
  32   15   42 1
  33   16   17 2
  34   16   21 1
  35   21   22 ar
  36   21   26 ar
  37   22   23 ar
  38   23   24 ar
  39   23   43 1
  40   24   25 ar
  41   24   27 1
  42   25   26 ar
  43   25   44 1
  44   26   45 1
  45   28   29 1
  46   28   30 1
  47   28   31 1

#	End of record

