#	Name: ASD02560227
#	Creating user name:	WinNT
#	Creation time:	15. 06. 2019 20:24

#	Modifying user name:	WinNT
#	Modification time:	15. 06. 2019 20:24

#	Program:	/corina/corina34_cracker 3.40 0067  02.08.2006

@<TRIPOS>MOLECULE
ASD02560227
  72   76    0    0    0
SMALL
NO_CHARGES


@<TRIPOS>ATOM
   1 Br1            0.4407     3.3513    -1.2532 Br      
   2 N2            -0.4147     1.7006     0.8860 N.2     
   3 N3            -0.5607     0.5134     0.5788 N.2     
   4 C4             0.8285     2.2455     0.3253 C.3     
   5 N5             1.6238     1.0528    -0.0616 N.3     
   6 C6             0.5569     0.0368    -0.2462 C.3     
   7 S7             1.1230    -1.5861     0.3337 S.3     
   8 C8             1.4914    -1.2880     2.0847 C.3     
   9 C9             1.9819    -2.5640     2.7192 C.2     
  10 O10            2.0738    -3.5748     2.0554 O.2     
  11 N11            2.3183    -2.5817     4.0241 N.am    
  12 C12            2.3118     1.2763    -1.2523 C.ar    
  13 C13            2.7067    -3.7775     4.6281 C.ar    
  14 C14            2.4597    -3.9839     5.9829 C.ar    
  15 C15            2.8422    -5.1639     6.5819 C.ar    
  16 C16            3.4786    -6.1540     5.8279 C.ar    
  17 C17            3.7245    -5.9430     4.4688 C.ar    
  18 C18            3.3346    -4.7635     3.8746 C.ar    
  19 Cl19           1.6697    -2.7529     6.9179 Cl      
  20 C20            3.8903    -7.4195     6.4662 C.2     
  21 C21            3.2499     2.3266    -1.3464 C.ar    
  22 C22            2.0866     0.4699    -2.3478 C.ar    
  23 C23            2.7685     0.6848    -3.5415 C.ar    
  24 C24            3.6750     1.6938    -3.6616 C.ar    
  25 C25            3.9376     2.5352    -2.5673 C.ar    
  26 C26            3.5136     3.1678    -0.2542 C.ar    
  27 C27            4.8677     3.5850    -2.6627 C.ar    
  28 C28            5.0976     4.3813    -1.5832 C.ar    
  29 C29            4.4248     4.1716    -0.3810 C.ar    
  30 C30            4.4003     1.9045    -4.9657 C.3     
  31 N31            5.1011    -7.9471     6.1975 N.am    
  32 O32            3.1372    -7.9861     7.2345 O.2     
  33 C33            5.4840    -9.2574     6.7407 C.3     
  34 C34            6.8160    -9.1132     7.4835 C.3     
  35 C35            7.8543    -8.4941     6.5450 C.3     
  36 C36            7.3885    -7.1015     6.1137 C.3     
  37 C37            6.0609    -7.2255     5.3508 C.3     
  38 C38            9.1954    -8.3803     7.2727 C.3     
  39 N39           10.2206    -7.8983     6.3375 N.3     
  40 C40            5.7512     1.1876    -4.9195 C.3     
  41 H41            1.3603     2.8287     1.0770 H       
  42 H42            0.2600    -0.0159    -1.2937 H       
  43 H43            2.2615    -0.5212     2.1686 H       
  44 H44            0.5879    -0.9529     2.5941 H       
  45 H45            2.2903    -1.7628     4.5434 H       
  46 H46            2.6509    -5.3238     7.6327 H       
  47 H47            4.2161    -6.7062     3.8837 H       
  48 H48            3.5243    -4.6004     2.8240 H       
  49 H49            1.3731    -0.3379    -2.2785 H       
  50 H50            2.5759     0.0404    -4.3866 H       
  51 H51            2.9960     3.0199     0.6821 H       
  52 H52            5.3974     3.7584    -3.5878 H       
  53 H53            5.8126     5.1871    -1.6591 H       
  54 H54            4.6250     4.8180     0.4607 H       
  55 H55            3.8026     1.5011    -5.7831 H       
  56 H56            4.5601     2.9709    -5.1244 H       
  57 H57            4.7160    -9.6051     7.4317 H       
  58 H58            5.5957    -9.9724     5.9256 H       
  59 H59            6.6803    -8.4686     8.3519 H       
  60 H60            7.1593   -10.0952     7.8088 H       
  61 H61            7.9714    -9.1266     5.6650 H       
  62 H62            7.2475    -6.4759     6.9951 H       
  63 H63            8.1394    -6.6518     5.4641 H       
  64 H64            6.2224    -7.7743     4.4230 H       
  65 H65            5.6737    -6.2314     5.1272 H       
  66 H66            9.1008    -7.6786     8.1013 H       
  67 H67            9.4847    -9.3587     7.6563 H       
  68 H68           11.1163    -7.8146     6.7945 H       
  69 H69           10.2822    -8.4976     5.5281 H       
  70 H70            6.2758     1.3400    -5.8628 H       
  71 H71            6.3488     1.5910    -4.1021 H       
  72 H72            5.5913     0.1211    -4.7608 H       
@<TRIPOS>BOND
   1    1    4 1
   2    2    3 2
   3    2    4 1
   4    3    6 1
   5    4    5 1
   6    4   41 1
   7    5    6 1
   8    5   12 1
   9    6    7 1
  10    6   42 1
  11    7    8 1
  12    8    9 1
  13    8   43 1
  14    8   44 1
  15    9   10 2
  16    9   11 am
  17   11   13 1
  18   11   45 1
  19   12   21 ar
  20   12   22 ar
  21   13   14 ar
  22   13   18 ar
  23   14   15 ar
  24   14   19 1
  25   15   16 ar
  26   15   46 1
  27   16   17 ar
  28   16   20 1
  29   17   18 ar
  30   17   47 1
  31   18   48 1
  32   20   31 am
  33   20   32 2
  34   21   25 ar
  35   21   26 ar
  36   22   23 ar
  37   22   49 1
  38   23   24 ar
  39   23   50 1
  40   24   25 ar
  41   24   30 1
  42   25   27 ar
  43   26   29 ar
  44   26   51 1
  45   27   28 ar
  46   27   52 1
  47   28   29 ar
  48   28   53 1
  49   29   54 1
  50   30   40 1
  51   30   55 1
  52   30   56 1
  53   31   33 1
  54   31   37 1
  55   33   34 1
  56   33   57 1
  57   33   58 1
  58   34   35 1
  59   34   59 1
  60   34   60 1
  61   35   36 1
  62   35   38 1
  63   35   61 1
  64   36   37 1
  65   36   62 1
  66   36   63 1
  67   37   64 1
  68   37   65 1
  69   38   39 1
  70   38   66 1
  71   38   67 1
  72   39   68 1
  73   39   69 1
  74   40   70 1
  75   40   71 1
  76   40   72 1

#	End of record

