#	Name: ASD01900989
#	Creating user name:	WinNT
#	Creation time:	15. 06. 2019 19:52

#	Modifying user name:	WinNT
#	Modification time:	15. 06. 2019 19:52

#	Program:	/corina/corina34_cracker 3.40 0067  02.08.2006

@<TRIPOS>MOLECULE
ASD01900989
  61   65    0    0    0
SMALL
NO_CHARGES


@<TRIPOS>ATOM
   1 C1             0.4358     0.9431     0.1727 C.ar    
   2 C2             0.5442    -0.4296     0.0904 C.ar    
   3 C3             1.7606    -1.0223    -0.2103 C.ar    
   4 C4             2.8844    -0.2482    -0.4265 C.ar    
   5 C5             2.7933     1.1311    -0.3454 C.ar    
   6 C6             1.5588     1.7361    -0.0500 C.ar    
   7 N7             3.8996     1.9505    -0.5396 N.pl3   
   8 C8             3.6920     3.3092    -1.0528 C.3     
   9 N9             2.5525     3.9362    -0.3821 N.am    
  10 C10            1.4952     3.2060     0.0254 C.2     
  11 C11            2.5608     5.3187    -0.1588 C.ar    
  12 C12            3.3145     5.8502     0.8793 C.ar    
  13 C13            3.3222     7.2135     1.0988 C.ar    
  14 C14            2.5773     8.0520     0.2826 C.ar    
  15 C15            1.8241     7.5218    -0.7547 C.ar    
  16 C16            1.8199     6.1593    -0.9790 C.ar    
  17 O17            0.4976     3.7557     0.4516 O.2     
  18 O18            2.5850     9.3943     0.4996 O.3     
  19 C19            4.9518     4.1433    -0.8018 C.3     
  20 C20            3.4253     3.2462    -2.5595 C.3     
  21 C21            3.2753     4.6683    -3.1048 C.3     
  22 N22            4.5030     5.4287    -2.8381 N.3     
  23 C23            4.7575     5.5401    -1.3963 C.3     
  24 C24            4.4478     6.7551    -3.4670 C.3     
  25 C25            5.6908     7.5306    -3.1139 C.ar    
  26 C26            1.8848    10.2080    -0.4436 C.3     
  27 C27            6.7933     7.4861    -3.9470 C.ar    
  28 C28            7.9333     8.1972    -3.6232 C.ar    
  29 C29            7.9711     8.9535    -2.4664 C.ar    
  30 C30            6.8686     8.9987    -1.6340 C.ar    
  31 C31            5.7267     8.2908    -1.9602 C.ar    
  32 C32            6.9099     9.8226    -0.3729 C.3     
  33 F33            8.1939    10.3518    -0.2034 F       
  34 F34            5.9839    10.8670    -0.4676 F       
  35 F35            6.5904     9.0140     0.7231 F       
  36 H36           -0.5150     1.4002     0.4040 H       
  37 H37           -0.3251    -1.0471     0.2617 H       
  38 H38            1.8306    -2.0980    -0.2756 H       
  39 H39            3.8297    -0.7168    -0.6574 H       
  40 H40            4.7928     1.6296    -0.3391 H       
  41 H41            3.8943     5.1974     1.5151 H       
  42 H42            3.9081     7.6270     1.9064 H       
  43 H43            1.2443     8.1753    -1.3898 H       
  44 H44            1.2370     5.7471    -1.7894 H       
  45 H45            5.1264     4.2252     0.2710 H       
  46 H46            5.8076     3.6619    -1.2751 H       
  47 H47            4.2600     2.7519    -3.0566 H       
  48 H48            2.5080     2.6870    -2.7437 H       
  49 H49            3.0992     4.6284    -4.1797 H       
  50 H50            2.4322     5.1573    -2.6168 H       
  51 H51            3.9087     6.0251    -0.9142 H       
  52 H52            5.6567     6.1335    -1.2310 H       
  53 H53            4.3854     6.6418    -4.5493 H       
  54 H54            3.5702     7.2918    -3.1066 H       
  55 H55            0.8526     9.8668    -0.5221 H       
  56 H56            1.9000    11.2457    -0.1101 H       
  57 H57            2.3676    10.1323    -1.4178 H       
  58 H58            6.7638     6.8953    -4.8507 H       
  59 H59            8.7948     8.1619    -4.2736 H       
  60 H60            8.8621     9.5086    -2.2130 H       
  61 H61            4.8639     8.3291    -1.3117 H       
@<TRIPOS>BOND
   1    1    2 ar
   2    1    6 ar
   3    1   36 1
   4    2    3 ar
   5    2   37 1
   6    3    4 ar
   7    3   38 1
   8    4    5 ar
   9    4   39 1
  10    5    7 1
  11    5    6 ar
  12    6   10 1
  13    7    8 1
  14    7   40 1
  15    8    9 1
  16    8   20 1
  17    8   19 1
  18    9   10 am
  19    9   11 1
  20   10   17 2
  21   11   12 ar
  22   11   16 ar
  23   12   13 ar
  24   12   41 1
  25   13   14 ar
  26   13   42 1
  27   14   15 ar
  28   14   18 1
  29   15   16 ar
  30   15   43 1
  31   16   44 1
  32   18   26 1
  33   19   23 1
  34   19   45 1
  35   19   46 1
  36   20   21 1
  37   20   47 1
  38   20   48 1
  39   21   22 1
  40   21   49 1
  41   21   50 1
  42   22   23 1
  43   22   24 1
  44   23   51 1
  45   23   52 1
  46   24   25 1
  47   24   53 1
  48   24   54 1
  49   25   27 ar
  50   25   31 ar
  51   26   55 1
  52   26   56 1
  53   26   57 1
  54   27   28 ar
  55   27   58 1
  56   28   29 ar
  57   28   59 1
  58   29   30 ar
  59   29   60 1
  60   30   31 ar
  61   30   32 1
  62   31   61 1
  63   32   33 1
  64   32   34 1
  65   32   35 1

#	End of record

