#	Name: ASD02039300
#	Creating user name:	WinNT
#	Creation time:	15. 06. 2019 20:18

#	Modifying user name:	WinNT
#	Modification time:	15. 06. 2019 20:18

#	Program:	/corina/corina34_cracker 3.40 0067  02.08.2006

@<TRIPOS>MOLECULE
ASD02039300
  47   49    0    0    0
SMALL
NO_CHARGES


@<TRIPOS>ATOM
   1 C1            -0.1345     1.5596    -0.1872 C.ar    
   2 C2            -0.1559     0.1782    -0.0590 C.ar    
   3 C3            -1.3626    -0.4920    -0.1418 C.ar    
   4 N4            -2.4880     0.1633    -0.3408 N.ar    
   5 C5            -2.5107     1.4839    -0.4686 C.ar    
   6 C6            -1.3324     2.2231    -0.3899 C.ar    
   7 C7            -3.8016     2.1791    -0.6919 C.ar    
   8 C8             1.1630     2.3213    -0.1015 C.3     
   9 N9             1.8164     2.3220    -1.4127 N.am    
  10 C10            1.4076     3.2893    -2.4343 C.3     
  11 C11            2.7935     1.4329    -1.6792 C.2     
  12 C12            3.1433     0.4029    -0.6857 C.2     
  13 C13            4.1487    -0.5129    -0.7932 C.2     
  14 C14            2.5762     4.2262    -2.7462 C.3     
  15 N15            2.5275     0.1959     0.5064 N.2     
  16 C16            3.1088    -0.7980     1.1135 C.2     
  17 N17            4.1202    -1.2619     0.3341 N.pl3   
  18 O18            3.3866     1.4808    -2.7400 O.2     
  19 C19            5.0182    -2.3739     0.6555 C.3     
  20 C20            0.9972     2.5448    -3.7064 C.3     
  21 C21           -4.9856     1.4476    -0.7671 C.ar    
  22 C22           -3.8350     3.5665    -0.8215 C.ar    
  23 C23           -5.0380     4.2091    -1.0287 C.ar    
  24 C24           -6.2120     3.4774    -1.1080 C.ar    
  25 C25           -6.1842     2.0984    -0.9745 C.ar    
  26 F26           -7.3880     4.1108    -1.3106 F       
  27 H27            0.7613    -0.3684     0.1036 H       
  28 H28           -1.3826    -1.5672    -0.0425 H       
  29 H29           -1.3523     3.2979    -0.4937 H       
  30 H30            0.9622     3.3479     0.2049 H       
  31 H31            1.8163     1.8451     0.6297 H       
  32 H32            0.5632     3.8718    -2.0659 H       
  33 H33            4.8357    -0.6200    -1.6197 H       
  34 H34            3.4480     3.6372    -3.0312 H       
  35 H35            2.3015     4.8890    -3.5668 H       
  36 H36            2.8118     4.8198    -1.8629 H       
  37 H37            2.8336    -1.1888     2.0820 H       
  38 H38            4.5913    -3.3050     0.2829 H       
  39 H39            5.9876    -2.2053     0.1863 H       
  40 H40            5.1440    -2.4386     1.7362 H       
  41 H41            0.1124     1.9410    -3.5046 H       
  42 H42            0.7737     3.2654    -4.4930 H       
  43 H43            1.8132     1.8974    -4.0277 H       
  44 H44           -4.9648     0.3728    -0.6636 H       
  45 H45           -2.9205     4.1377    -0.7594 H       
  46 H46           -5.0649     5.2841    -1.1288 H       
  47 H47           -7.1016     1.5320    -1.0370 H       
@<TRIPOS>BOND
   1    1    2 ar
   2    1    8 1
   3    1    6 ar
   4    2    3 ar
   5    2   27 1
   6    3    4 ar
   7    3   28 1
   8    4    5 ar
   9    5    6 ar
  10    5    7 1
  11    6   29 1
  12    7   21 ar
  13    7   22 ar
  14    8    9 1
  15    8   30 1
  16    8   31 1
  17    9   10 1
  18    9   11 am
  19   10   20 1
  20   10   14 1
  21   10   32 1
  22   11   12 1
  23   11   18 2
  24   12   13 2
  25   12   15 1
  26   13   17 1
  27   13   33 1
  28   14   34 1
  29   14   35 1
  30   14   36 1
  31   15   16 2
  32   16   17 1
  33   16   37 1
  34   17   19 1
  35   19   38 1
  36   19   39 1
  37   19   40 1
  38   20   41 1
  39   20   42 1
  40   20   43 1
  41   21   25 ar
  42   21   44 1
  43   22   23 ar
  44   22   45 1
  45   23   24 ar
  46   23   46 1
  47   24   25 ar
  48   24   26 1
  49   25   47 1

#	End of record

