#	Name: ASD01900921
#	Creating user name:	WinNT
#	Creation time:	15. 06. 2019 19:52

#	Modifying user name:	WinNT
#	Modification time:	15. 06. 2019 19:52

#	Program:	/corina/corina34_cracker 3.40 0067  02.08.2006

@<TRIPOS>MOLECULE
ASD01900921
  40   42    0    0    0
SMALL
NO_CHARGES


@<TRIPOS>ATOM
   1 C1            -0.0177     1.4812    -0.7411 C.ar    
   2 C2             0.0035     0.1498    -1.1516 C.ar    
   3 C3             1.2231    -0.4949    -1.2823 C.ar    
   4 C4             2.3799     0.2144    -0.9980 C.ar    
   5 C5             2.2843     1.5365    -0.5946 C.ar    
   6 N6             1.1134     2.1243    -0.4786 N.ar    
   7 C7            -1.3127     2.1865    -0.6024 C.2     
   8 O8            -2.3510     1.6040    -0.8463 O.2     
   9 N9            -1.3395     3.4743    -0.2058 N.am    
  10 S10           -2.7349     5.7629     0.4164 S.3     
  11 C11           -2.5538     4.1356    -0.0758 C.2     
  12 N12           -3.7151     3.6091    -0.3106 N.2     
  13 C13           -4.7688     4.3843    -0.1362 C.2     
  14 C14           -4.4847     5.6250     0.2652 C.2     
  15 C15           -6.1788     3.9073    -0.3716 C.3     
  16 S16           -5.6551     6.9020     0.5877 S.o2    
  17 O17           -6.8044     6.2127     1.0604 O.2     
  18 O18           -4.9554     7.8166     1.4202 O.2     
  19 C19           -5.9791     7.6400    -1.0374 C.3     
  20 C20           -6.9781     8.7587    -0.8910 C.ar    
  21 C21           -6.5408    10.0479    -0.6496 C.ar    
  22 C22           -7.4566    11.0752    -0.5151 C.ar    
  23 C23           -8.8129    10.8113    -0.6223 C.ar    
  24 C24           -9.2485     9.5200    -0.8639 C.ar    
  25 C25           -8.3304     8.4960    -1.0036 C.ar    
  26 F26           -9.7092    11.8137    -0.4907 F       
  27 Cl27          -6.9079    12.6939    -0.2115 Cl      
  28 H28           -0.9176    -0.3723    -1.3645 H       
  29 H29            1.2714    -1.5265    -1.5982 H       
  30 H30            3.3462    -0.2591    -1.0897 H       
  31 H31            3.1834     2.0919    -0.3723 H       
  32 H32           -0.5108     3.9393    -0.0112 H       
  33 H33           -6.6135     3.5785     0.5723 H       
  34 H34           -6.7746     4.7229    -0.7814 H       
  35 H35           -6.1681     3.0756    -1.0760 H       
  36 H36           -5.0500     8.0341    -1.4492 H       
  37 H37           -6.3803     6.8801    -1.7081 H       
  38 H38           -5.4837    10.2527    -0.5659 H       
  39 H39          -10.3052     9.3132    -0.9476 H       
  40 H40           -8.6702     7.4892    -1.1969 H       
@<TRIPOS>BOND
   1    1    2 ar
   2    1    6 ar
   3    1    7 1
   4    2    3 ar
   5    2   28 1
   6    3    4 ar
   7    3   29 1
   8    4    5 ar
   9    4   30 1
  10    5    6 ar
  11    5   31 1
  12    7    8 2
  13    7    9 am
  14    9   11 1
  15    9   32 1
  16   10   11 1
  17   10   14 1
  18   11   12 2
  19   12   13 1
  20   13   14 2
  21   13   15 1
  22   14   16 1
  23   15   33 1
  24   15   34 1
  25   15   35 1
  26   16   17 2
  27   16   18 2
  28   16   19 1
  29   19   20 1
  30   19   36 1
  31   19   37 1
  32   20   21 ar
  33   20   25 ar
  34   21   22 ar
  35   21   38 1
  36   22   23 ar
  37   22   27 1
  38   23   24 ar
  39   23   26 1
  40   24   25 ar
  41   24   39 1
  42   25   40 1

#	End of record

