#	Name: ASD01914737
#	Creating user name:	WinNT
#	Creation time:	15. 06. 2019 20:04

#	Modifying user name:	WinNT
#	Modification time:	15. 06. 2019 20:04

#	Program:	/corina/corina34_cracker 3.40 0067  02.08.2006

@<TRIPOS>MOLECULE
ASD01914737
  42   45    0    0    0
SMALL
NO_CHARGES


@<TRIPOS>ATOM
   1 N1            -0.0166     1.3705     0.0096 N.am    
   2 C2             0.0021    -0.0041     0.0020 C.2     
   3 C3            -1.2736    -0.7246     0.0099 C.2     
   4 C4            -2.4136    -0.0072     0.0243 C.2     
   5 N5            -2.3602     1.3664     0.0312 N.am    
   6 C6            -1.1892     2.0260     0.0292 C.2     
   7 C7             1.2928     1.7853    -0.0007 C.2     
   8 C8             2.0584     0.6765    -0.0140 C.2     
   9 N9             1.2576    -0.3978    -0.0121 N.2     
  10 C10            3.5651     0.6493    -0.0292 C.3     
  11 O11           -1.1912     3.2419     0.0360 O.2     
  12 C12           -3.6103     2.1300     0.0468 C.3     
  13 O13            4.0658     1.9877    -0.0276 O.3     
  14 C14            5.4160     2.1414    -0.0404 C.ar    
  15 C15            5.9706     3.4130    -0.0396 C.ar    
  16 C16            6.2421     1.0269    -0.0485 C.ar    
  17 C17            7.6143     1.1858    -0.0610 C.ar    
  18 C18            8.1645     2.4542    -0.0650 C.ar    
  19 C19            7.3434     3.5666    -0.0521 C.ar    
  20 C20           -4.0259     2.3842     1.4729 C.ar    
  21 C21           -3.5925     3.5224     2.1267 C.ar    
  22 C22           -3.9736     3.7555     3.4349 C.ar    
  23 C23           -4.7886     2.8506     4.0890 C.ar    
  24 C24           -5.2227     1.7129     3.4349 C.ar    
  25 C25           -4.8451     1.4819     2.1254 C.ar    
  26 H26           -1.2993    -1.8043     0.0040 H       
  27 H27           -3.3690    -0.5109     0.0300 H       
  28 H28            1.6427     2.8070     0.0011 H       
  29 H29            3.9280     0.1245     0.8545 H       
  30 H30            3.9101     0.1334    -0.9253 H       
  31 H31           -3.4612     3.0816    -0.4633 H       
  32 H32           -4.3890     1.5626    -0.4629 H       
  33 H33            5.3296     4.2822    -0.0295 H       
  34 H34            5.8128     0.0359    -0.0446 H       
  35 H35            8.2578     0.3185    -0.0673 H       
  36 H36            9.2376     2.5764    -0.0745 H       
  37 H37            7.7756     4.5563    -0.0556 H       
  38 H38           -2.9558     4.2293     1.6156 H       
  39 H39           -3.6344     4.6444     3.9459 H       
  40 H40           -5.0858     3.0324     5.1113 H       
  41 H41           -5.8592     1.0057     3.9461 H       
  42 H42           -5.1843     0.5930     1.6143 H       
@<TRIPOS>BOND
   1    1    2 1
   2    1    7 1
   3    1    6 am
   4    2    3 1
   5    2    9 2
   6    3    4 2
   7    3   26 1
   8    4    5 1
   9    4   27 1
  10    5    6 am
  11    5   12 1
  12    6   11 2
  13    7    8 2
  14    7   28 1
  15    8    9 1
  16    8   10 1
  17   10   13 1
  18   10   29 1
  19   10   30 1
  20   12   20 1
  21   12   31 1
  22   12   32 1
  23   13   14 1
  24   14   15 ar
  25   14   16 ar
  26   15   19 ar
  27   15   33 1
  28   16   17 ar
  29   16   34 1
  30   17   18 ar
  31   17   35 1
  32   18   19 ar
  33   18   36 1
  34   19   37 1
  35   20   21 ar
  36   20   25 ar
  37   21   22 ar
  38   21   38 1
  39   22   23 ar
  40   22   39 1
  41   23   24 ar
  42   23   40 1
  43   24   25 ar
  44   24   41 1
  45   25   42 1

#	End of record

