#	Name: ASD03240514
#	Creating user name:	WinNT
#	Creation time:	15. 06. 2019 20:35

#	Modifying user name:	WinNT
#	Modification time:	15. 06. 2019 20:35

#	Program:	/corina/corina34_cracker 3.40 0067  02.08.2006

@<TRIPOS>MOLECULE
ASD03240514
  43   45    0    0    0
SMALL
NO_CHARGES


@<TRIPOS>ATOM
   1 C1            -0.4918     1.5934    -0.1290 C.ar    
   2 C2            -0.1896     0.2437    -0.1244 C.ar    
   3 C3             0.5160     2.5284    -0.2521 C.ar    
   4 C4             1.8395     2.1105    -0.3720 C.ar    
   5 C5             2.1383     0.7500    -0.3669 C.ar    
   6 C6             1.1228    -0.1766    -0.2427 C.ar    
   7 C7             2.9277     3.1118    -0.5052 C.2     
   8 C8             4.2595     2.8432    -0.6297 C.2     
   9 N9             4.9063     4.0224    -0.7245 N.pl3   
  10 N10            3.9566     5.0490    -0.6575 N.2     
  11 C11            2.7722     4.5114    -0.5321 C.2     
  12 C12           -1.2942    -0.7726     0.0103 C.3     
  13 C13           -1.4325    -1.5383    -1.2802 C.ar    
  14 C14           -2.5570    -1.3708    -2.0659 C.ar    
  15 C15           -2.6836    -2.0737    -3.2510 C.ar    
  16 C16           -1.6843    -2.9436    -3.6487 C.ar    
  17 C17           -0.5599    -3.1104    -2.8620 C.ar    
  18 C18           -0.4316    -2.4041    -1.6809 C.ar    
  19 C19           -0.9593    -1.7423     1.1454 C.3     
  20 C20           -0.9417    -0.9850     2.4747 C.3     
  21 N21           -0.6202    -1.9161     3.5645 N.3     
  22 Cl22          -4.0961    -1.8642    -4.2382 Cl      
  23 C23           -0.5943    -1.2224     4.8591 C.3     
  24 H24           -1.5187     1.9162    -0.0405 H       
  25 H25            0.2790     3.5821    -0.2558 H       
  26 H26            3.1627     0.4207    -0.4595 H       
  27 H27            1.3534    -1.2317    -0.2383 H       
  28 H28            4.7135     1.8635    -0.6490 H       
  29 H29            5.8643     4.1394    -0.8219 H       
  30 H30            1.8376     5.0471    -0.4552 H       
  31 H31           -2.2317    -0.2629     0.2326 H       
  32 H32           -3.3370    -0.6917    -1.7547 H       
  33 H33           -1.7827    -3.4928    -4.5735 H       
  34 H34            0.2203    -3.7896    -3.1724 H       
  35 H35            0.4471    -2.5344    -1.0667 H       
  36 H36           -1.7128    -2.5290     1.1853 H       
  37 H37            0.0201    -2.1861     0.9670 H       
  38 H38           -0.1883    -0.1983     2.4347 H       
  39 H39           -1.9212    -0.5412     2.6530 H       
  40 H40           -1.2675    -2.6899     3.5817 H       
  41 H41           -0.3539    -1.9348     5.6483 H       
  42 H42            0.1615    -0.4374     4.8357 H       
  43 H43           -1.5714    -0.7803     5.0540 H       
@<TRIPOS>BOND
   1    1    2 ar
   2    1    3 ar
   3    1   24 1
   4    2   12 1
   5    2    6 ar
   6    3    4 ar
   7    3   25 1
   8    4    5 ar
   9    4    7 1
  10    5    6 ar
  11    5   26 1
  12    6   27 1
  13    7    8 2
  14    7   11 1
  15    8    9 1
  16    8   28 1
  17    9   10 1
  18    9   29 1
  19   10   11 2
  20   11   30 1
  21   12   13 1
  22   12   19 1
  23   12   31 1
  24   13   14 ar
  25   13   18 ar
  26   14   15 ar
  27   14   32 1
  28   15   16 ar
  29   15   22 1
  30   16   17 ar
  31   16   33 1
  32   17   18 ar
  33   17   34 1
  34   18   35 1
  35   19   20 1
  36   19   36 1
  37   19   37 1
  38   20   21 1
  39   20   38 1
  40   20   39 1
  41   21   23 1
  42   21   40 1
  43   23   41 1
  44   23   42 1
  45   23   43 1

#	End of record

