#	Name: ASD02030004
#	Creating user name:	WinNT
#	Creation time:	15. 06. 2019 20:14

#	Modifying user name:	WinNT
#	Modification time:	15. 06. 2019 20:14

#	Program:	/corina/corina34_cracker 3.40 0067  02.08.2006

@<TRIPOS>MOLECULE
ASD02030004
  52   53    0    0    0
SMALL
NO_CHARGES


@<TRIPOS>ATOM
   1 C1             0.8467     0.6698     0.4928 C.ar    
   2 C2             0.7124    -0.7054     0.4053 C.ar    
   3 C3            -0.5475    -1.2757     0.3694 C.ar    
   4 C4            -1.6712    -0.4728     0.4209 C.ar    
   5 C5            -1.5372     0.9006     0.5079 C.ar    
   6 C6            -0.2793     1.4716     0.5501 C.ar    
   7 Cl7            2.4269     1.3870     0.5378 Cl      
   8 C8            -3.0434    -1.0945     0.3819 C.3     
   9 C9            -3.5073    -1.3966     1.8082 C.3     
  10 N10           -4.8449    -2.0026     1.7701 N.3     
  11 C11           -5.2254    -2.5220     3.0905 C.3     
  12 C12           -6.4998    -3.3587     2.9616 C.3     
  13 C13           -6.9657    -3.7959     4.3518 C.3     
  14 O14           -8.2169    -4.4775     4.2424 O.3     
  15 C15           -8.7738    -4.9349     5.3958 C.ar    
  16 C16           -9.9875    -5.6052     5.3612 C.ar    
  17 C17          -10.5535    -6.0705     6.5319 C.ar    
  18 C18           -9.9070    -5.8671     7.7439 C.ar    
  19 C19           -8.6918    -5.1959     7.7776 C.ar    
  20 C20           -8.1247    -4.7359     6.6053 C.ar    
  21 N21          -10.4799    -6.3378     8.9307 N.am    
  22 S22          -11.2013    -5.2781     9.9790 S.o2    
  23 C23          -12.5902    -4.5864     9.0393 C.3     
  24 O24          -11.6751    -6.0998    11.0371 O.2     
  25 O25          -10.2115    -4.2849    10.2097 O.2     
  26 O26           -6.2327    -4.5137     2.1636 O.3     
  27 Cl27           2.1242    -1.7134     0.3400 Cl      
  28 C28           -5.8426    -1.0455     1.2735 C.3     
  29 H29           -0.6530    -2.3484     0.3008 H       
  30 H30           -2.4159     1.5272     0.5478 H       
  31 H31           -0.1752     2.5445     0.6180 H       
  32 H32           -3.7424    -0.4030    -0.0887 H       
  33 H33           -3.0066    -2.0205    -0.1920 H       
  34 H34           -2.8084    -2.0881     2.2788 H       
  35 H35           -3.5442    -0.4706     2.3821 H       
  36 H36           -4.4204    -3.1441     3.4819 H       
  37 H37           -5.4046    -1.6893     3.7706 H       
  38 H38           -7.2796    -2.7623     2.4880 H       
  39 H39           -6.2247    -4.4648     4.7896 H       
  40 H40           -7.0841    -2.9187     4.9878 H       
  41 H41          -10.4904    -5.7630     4.4185 H       
  42 H42          -11.4988    -6.5921     6.5049 H       
  43 H43           -8.1883    -5.0372     8.7198 H       
  44 H44           -7.1795    -4.2142     6.6313 H       
  45 H45          -10.4546    -7.2847     9.1392 H       
  46 H46          -13.2171    -5.3971     8.6679 H       
  47 H47          -13.1803    -3.9383     9.6872 H       
  48 H48          -12.2077    -4.0083     8.1981 H       
  49 H49           -5.5472    -5.0918     2.5255 H       
  50 H50           -5.5730    -0.7299     0.2656 H       
  51 H51           -6.8237    -1.5199     1.2555 H       
  52 H52           -5.8712    -0.1765     1.9309 H       
@<TRIPOS>BOND
   1    1    2 ar
   2    1    7 1
   3    1    6 ar
   4    2    3 ar
   5    2   27 1
   6    3    4 ar
   7    3   29 1
   8    4    5 ar
   9    4    8 1
  10    5    6 ar
  11    5   30 1
  12    6   31 1
  13    8    9 1
  14    8   32 1
  15    8   33 1
  16    9   10 1
  17    9   34 1
  18    9   35 1
  19   10   11 1
  20   10   28 1
  21   11   12 1
  22   11   36 1
  23   11   37 1
  24   12   13 1
  25   12   26 1
  26   12   38 1
  27   13   14 1
  28   13   39 1
  29   13   40 1
  30   14   15 1
  31   15   16 ar
  32   15   20 ar
  33   16   17 ar
  34   16   41 1
  35   17   18 ar
  36   17   42 1
  37   18   19 ar
  38   18   21 1
  39   19   20 ar
  40   19   43 1
  41   20   44 1
  42   21   22 am
  43   21   45 1
  44   22   23 1
  45   22   24 2
  46   22   25 2
  47   23   46 1
  48   23   47 1
  49   23   48 1
  50   26   49 1
  51   28   50 1
  52   28   51 1
  53   28   52 1

#	End of record

