#	Name: ASD00170369
#	Creating user name:	WinNT
#	Creation time:	15. 06. 2019 18:32

#	Modifying user name:	WinNT
#	Modification time:	15. 06. 2019 18:32

#	Program:	/corina/corina34_cracker 3.40 0067  02.08.2006

@<TRIPOS>MOLECULE
ASD00170369
  98  104    0    0    0
SMALL
NO_CHARGES


@<TRIPOS>ATOM
   1 C1             1.0953     2.5388     0.6016 C.ar    
   2 C2             1.2344     1.1409     0.6100 C.ar    
   3 N3             0.1454     0.3838     0.6972 N.ar    
   4 C4            -1.0485     0.9323     0.7748 C.ar    
   5 N5            -1.2292     2.2407     0.7705 N.ar    
   6 C6            -0.1998     3.0773     0.6909 C.ar    
   7 N7             2.3407     3.0634     0.5070 N.2     
   8 C8             3.2141     2.0999     0.4581 C.2     
   9 N9             2.5809     0.8942     0.5185 N.pl3   
  10 C10            4.7664    -0.5872     2.3667 C.3     
  11 C11            3.3430    -0.9918     1.9222 C.3     
  12 C12            3.2209    -0.4234     0.4910 C.3     
  13 O13            4.5820    -0.3115     0.0210 O.3     
  14 C14            5.3359     0.1779     1.1515 C.3     
  15 O15            4.7099     0.2644     3.5129 O.3     
  16 O16            2.3640    -0.4025     2.7803 O.3     
  17 C17            6.8233    -0.1340     0.9751 C.3     
  18 O18            7.3398     0.6154    -0.1265 O.3     
  19 N19           -0.3991     4.4467     0.6875 N.pl3   
  20 C20           -1.7571     4.9896     0.7723 C.3     
  21 C21           -1.6977     6.5182     0.7495 C.3     
  22 C22           -3.1160     7.0852     0.8381 C.3     
  23 C23           -3.0565     8.6138     0.8154 C.3     
  24 C24           -4.4749     9.1808     0.9039 C.3     
  25 C25           -4.4154    10.7094     0.8812 C.3     
  26 N26           -5.7735    11.2523     0.9660 N.am    
  27 C27           -5.9675    12.5860     0.9627 C.2     
  28 C28           -7.3348    13.1325     1.0481 C.ar    
  29 O29           -5.0153    13.3388     0.8893 O.2     
  30 C30           -7.5359    14.5169     1.0446 C.ar    
  31 C31           -8.8010    15.0232     1.1236 C.ar    
  32 C32           -9.8974    14.1568     1.2081 C.ar    
  33 C33           -9.6955    12.7715     1.2115 C.ar    
  34 C34           -8.4304    12.2662     1.1267 C.ar    
  35 C35          -11.2620    14.7023     1.2938 C.2     
  36 C36          -11.7568    15.6891     0.4916 C.2     
  37 C37          -13.1323    16.0204     0.8089 C.2     
  38 C38          -13.6383    15.2709     1.8459 C.2     
  39 S39          -12.4816    14.1694     2.4366 S.3     
  40 N40          -14.9182    15.3918     2.3389 N.pl3   
  41 C41          -13.9009    17.0434     0.1011 C.2     
  42 C42          -10.9775    16.3470    -0.5806 C.ar    
  43 C43          -10.5891    15.6239    -1.7089 C.ar    
  44 C44           -9.8625    16.2433    -2.7051 C.ar    
  45 C45           -9.5188    17.5781    -2.5867 C.ar    
  46 C46           -9.9010    18.3008    -1.4702 C.ar    
  47 C47          -10.6329    17.6949    -0.4702 C.ar    
  48 O48          -13.8239    18.2091     0.4445 O.2     
  49 C49          -14.7721    16.6622    -1.0321 C.ar    
  50 C50          -15.5913    17.6159    -1.6382 C.ar    
  51 C51          -16.4010    17.2540    -2.6948 C.ar    
  52 C52          -16.4025    15.9486    -3.1537 C.ar    
  53 C53          -15.5931    14.9982    -2.5570 C.ar    
  54 C54          -14.7741    15.3485    -1.5036 C.ar    
  55 C55           -9.4421    15.4639    -3.9245 C.3     
  56 F56          -10.4331    15.5646    -4.9069 F       
  57 F57           -8.2409    15.9835    -4.4188 F       
  58 F58           -9.2621    14.1201    -3.5798 F       
  59 H59           -1.9128     0.2885     0.8442 H       
  60 H60            4.2827     2.2354     0.3808 H       
  61 H61            5.3663    -1.4721     2.5789 H       
  62 H62            3.2393    -2.0768     1.9146 H       
  63 H63            2.6559    -1.1075    -0.1421 H       
  64 H64            5.1840     1.2504     1.2732 H       
  65 H65            5.5763     0.5489     3.8346 H       
  66 H66            2.4335    -0.6787     3.7044 H       
  67 H67            7.3616     0.1371     1.8833 H       
  68 H68            6.9507    -1.1991     0.7815 H       
  69 H69            8.2800     0.4669    -0.2970 H       
  70 H70            0.3605     5.0472     0.6290 H       
  71 H71           -2.3433     4.6361    -0.0759 H       
  72 H72           -2.2237     4.6579     1.6999 H       
  73 H73           -1.1115     6.8717     1.5978 H       
  74 H74           -1.2311     6.8499    -0.1780 H       
  75 H75           -3.7022     6.7317    -0.0101 H       
  76 H76           -3.5826     6.7535     1.7657 H       
  77 H77           -2.4703     8.9673     1.6636 H       
  78 H78           -2.5899     8.9455    -0.1122 H       
  79 H79           -5.0611     8.8273     0.0557 H       
  80 H80           -4.9415     8.8491     1.8315 H       
  81 H81           -3.8292    11.0629     1.7294 H       
  82 H82           -3.9488    11.0411    -0.0464 H       
  83 H83           -6.5330    10.6518     1.0245 H       
  84 H84           -6.6900    15.1852     0.9798 H       
  85 H85           -8.9561    16.0920     1.1213 H       
  86 H86          -10.5410    12.1027     1.2770 H       
  87 H87           -8.2746    11.1975     1.1290 H       
  88 H88          -15.5508    15.9857     1.9055 H       
  89 H89          -15.1872    14.8829     3.1197 H       
  90 H90          -10.8562    14.5817    -1.8022 H       
  91 H91           -8.9494    18.0581    -3.3689 H       
  92 H92           -9.6295    19.3425    -1.3837 H       
  93 H93          -10.9306    18.2600     0.4007 H       
  94 H94          -15.5916    18.6350    -1.2805 H       
  95 H95          -17.0354    17.9910    -3.1647 H       
  96 H96          -17.0385    15.6703    -3.9810 H       
  97 H97          -15.5992    13.9809    -2.9197 H       
  98 H98          -14.1428    14.6057    -1.0387 H       
@<TRIPOS>BOND
   1    1    2 ar
   2    1    7 1
   3    1    6 ar
   4    2    3 ar
   5    2    9 1
   6    3    4 ar
   7    4    5 ar
   8    4   59 1
   9    5    6 ar
  10    6   19 1
  11    7    8 2
  12    8    9 1
  13    8   60 1
  14    9   12 1
  15   10   11 1
  16   10   15 1
  17   10   14 1
  18   10   61 1
  19   11   16 1
  20   11   12 1
  21   11   62 1
  22   12   13 1
  23   12   63 1
  24   13   14 1
  25   14   17 1
  26   14   64 1
  27   15   65 1
  28   16   66 1
  29   17   18 1
  30   17   67 1
  31   17   68 1
  32   18   69 1
  33   19   20 1
  34   19   70 1
  35   20   21 1
  36   20   71 1
  37   20   72 1
  38   21   22 1
  39   21   73 1
  40   21   74 1
  41   22   23 1
  42   22   75 1
  43   22   76 1
  44   23   24 1
  45   23   77 1
  46   23   78 1
  47   24   25 1
  48   24   79 1
  49   24   80 1
  50   25   26 1
  51   25   81 1
  52   25   82 1
  53   26   27 am
  54   26   83 1
  55   27   28 1
  56   27   29 2
  57   28   30 ar
  58   28   34 ar
  59   30   31 ar
  60   30   84 1
  61   31   32 ar
  62   31   85 1
  63   32   33 ar
  64   32   35 1
  65   33   34 ar
  66   33   86 1
  67   34   87 1
  68   35   36 2
  69   35   39 1
  70   36   37 1
  71   36   42 1
  72   37   38 2
  73   37   41 1
  74   38   39 1
  75   38   40 1
  76   40   88 1
  77   40   89 1
  78   41   48 2
  79   41   49 1
  80   42   43 ar
  81   42   47 ar
  82   43   44 ar
  83   43   90 1
  84   44   55 1
  85   44   45 ar
  86   45   46 ar
  87   45   91 1
  88   46   47 ar
  89   46   92 1
  90   47   93 1
  91   49   50 ar
  92   49   54 ar
  93   50   51 ar
  94   50   94 1
  95   51   52 ar
  96   51   95 1
  97   52   53 ar
  98   52   96 1
  99   53   54 ar
 100   53   97 1
 101   54   98 1
 102   55   56 1
 103   55   57 1
 104   55   58 1

#	End of record

