#	Name: ASD05730155
#	Creating user name:	WinNT
#	Creation time:	15. 06. 2019 21:02

#	Modifying user name:	WinNT
#	Modification time:	15. 06. 2019 21:02

#	Program:	/corina/corina34_cracker 3.40 0067  02.08.2006

@<TRIPOS>MOLECULE
ASD05730155
  67   73    0    0    0
SMALL
NO_CHARGES


@<TRIPOS>ATOM
   1 C1             0.0286     1.5030     0.0337 C.3     
   2 C2             0.0364    -0.0039     0.0193 C.ar    
   3 C3            -1.0076    -0.7048     0.5947 C.ar    
   4 C4            -1.0037    -2.0858     0.5828 C.ar    
   5 C5             0.0505    -2.7707    -0.0080 C.ar    
   6 C6             1.0976    -2.0636    -0.5851 C.ar    
   7 C7             1.0849    -0.6826    -0.5743 C.ar    
   8 N8             0.0578    -4.1686    -0.0214 N.pl3   
   9 C9             0.5895    -4.8463    -1.1016 C.ar    
  10 N10            0.6871    -6.1656    -1.0415 N.ar    
  11 C11            1.1927    -6.8524    -2.0596 C.ar    
  12 C12            1.6229    -6.1476    -3.2050 C.ar    
  13 C13            1.4983    -4.7498    -3.2196 C.ar    
  14 N14            0.9790    -4.1509    -2.1645 N.ar    
  15 N15            1.2972    -8.2216    -2.0033 N.am    
  16 C16            1.8103    -8.9175    -3.0358 C.2     
  17 C17            2.2682    -8.2220    -4.2417 C.2     
  18 C18            2.1655    -6.8450    -4.3074 C.2     
  19 C19            0.8678    -8.8973    -0.8650 C.2     
  20 O20            1.8946   -10.1306    -2.9668 O.2     
  21 C21            2.8315    -8.9829    -5.3734 C.2     
  22 S22            0.1908    -8.1542     0.5179 S.3     
  23 S23            3.4204    -8.2874    -6.8811 S.3     
  24 C24            1.2829     2.0372     0.7498 C.3     
  25 N25            2.9786   -10.2775    -5.4161 N.2     
  26 C26            3.5010   -10.7824    -6.5107 C.2     
  27 C27            3.8258    -9.9013    -7.4619 C.2     
  28 S28            4.5390   -10.2867    -9.0263 S.o2    
  29 C29            3.2112   -10.5508   -10.1540 C.ar    
  30 C30            2.6849    -9.4998   -10.8895 C.ar    
  31 C31            2.6715   -11.8156   -10.3313 C.ar    
  32 C32            1.6305   -11.9845   -11.2245 C.ar    
  33 N33            1.1516   -10.9606   -11.9036 N.ar    
  34 C34            1.6435    -9.7450   -11.7643 C.ar    
  35 O35            5.2083    -9.1116    -9.4626 O.2     
  36 O36            5.1902   -11.5403    -8.8725 O.2     
  37 N37            0.9178   -10.1821    -0.7012 N.2     
  38 C38            0.4659   -10.6567     0.4435 C.2     
  39 C39            0.0100    -9.7283     1.2880 C.2     
  40 N40            2.0508     2.8176    -0.2446 N.3     
  41 C41            1.0603     3.2763    -1.2519 C.3     
  42 C42            0.1212     2.0539    -1.4078 C.3     
  43 C43            2.7248     3.9590     0.3887 C.3     
  44 H44           -0.8726     1.8713     0.5239 H       
  45 H45           -1.8267    -0.1716     1.0542 H       
  46 H46           -1.8192    -2.6325     1.0327 H       
  47 H47            1.9189    -2.5931    -1.0449 H       
  48 H48            1.8985    -0.1322    -1.0232 H       
  49 H49           -0.3104    -4.6627     0.7277 H       
  50 H50            1.8169    -4.1767    -4.0778 H       
  51 H51            2.4959    -6.3110    -5.1861 H       
  52 H52            0.9909     2.6795     1.5807 H       
  53 H53            1.8852     1.2050     1.1142 H       
  54 H54            3.6598   -11.8435    -6.6337 H       
  55 H55            3.0836    -8.5021   -10.7798 H       
  56 H56            3.0599   -12.6582    -9.7785 H       
  57 H57            1.2046   -12.9665   -11.3683 H       
  58 H58            1.2252    -8.9310   -12.3377 H       
  59 H59            0.4634   -11.7109     0.6781 H       
  60 H60           -0.3990    -9.9107     2.2708 H       
  61 H61            0.5084     4.1408    -0.8828 H       
  62 H62            1.5515     3.5071    -2.1971 H       
  63 H63            0.5599     1.3132    -2.0763 H       
  64 H64           -0.8604     2.3647    -1.7657 H       
  65 H65            3.4110     3.5967     1.1542 H       
  66 H66            3.2821     4.5156    -0.3648 H       
  67 H67            1.9814     4.6116     0.8466 H       
@<TRIPOS>BOND
   1    1    2 1
   2    1   24 1
   3    1   42 1
   4    1   44 1
   5    2    3 ar
   6    2    7 ar
   7    3    4 ar
   8    3   45 1
   9    4    5 ar
  10    4   46 1
  11    5    6 ar
  12    5    8 1
  13    6    7 ar
  14    6   47 1
  15    7   48 1
  16    8    9 1
  17    8   49 1
  18    9   10 ar
  19    9   14 ar
  20   10   11 ar
  21   11   12 ar
  22   11   15 1
  23   12   13 ar
  24   12   18 1
  25   13   14 ar
  26   13   50 1
  27   15   16 am
  28   15   19 1
  29   16   17 1
  30   16   20 2
  31   17   18 2
  32   17   21 1
  33   18   51 1
  34   19   37 2
  35   19   22 1
  36   21   23 1
  37   21   25 2
  38   22   39 1
  39   23   27 1
  40   24   40 1
  41   24   52 1
  42   24   53 1
  43   25   26 1
  44   26   27 2
  45   26   54 1
  46   27   28 1
  47   28   29 1
  48   28   35 2
  49   28   36 2
  50   29   30 ar
  51   29   31 ar
  52   30   34 ar
  53   30   55 1
  54   31   32 ar
  55   31   56 1
  56   32   33 ar
  57   32   57 1
  58   33   34 ar
  59   34   58 1
  60   37   38 1
  61   38   39 2
  62   38   59 1
  63   39   60 1
  64   40   41 1
  65   40   43 1
  66   41   42 1
  67   41   61 1
  68   41   62 1
  69   42   63 1
  70   42   64 1
  71   43   65 1
  72   43   66 1
  73   43   67 1

#	End of record

