#	Name: ASD01900054
#	Creating user name:	WinNT
#	Creation time:	15. 06. 2019 19:51

#	Modifying user name:	WinNT
#	Modification time:	15. 06. 2019 19:51

#	Program:	/corina/corina34_cracker 3.40 0067  02.08.2006

@<TRIPOS>MOLECULE
ASD01900054
  41   41    0    0    0
SMALL
NO_CHARGES


@<TRIPOS>ATOM
   1 C1            -0.0187     1.5258     0.0104 C.3     
   2 C2             0.0021    -0.0041     0.0020 C.3     
   3 N3             1.3595     2.0342     0.0000 N.3     
   4 C4             0.6061    -0.4987    -1.3138 C.3     
   5 P5             0.6308    -2.3215    -1.3239 P.3     
   6 O6             1.6247    -2.8511    -0.1733 O.3     
   7 O7            -0.7342    -2.8348    -1.0713 O.2     
   8 C8             1.2114    -2.9124    -2.9478 C.3     
   9 C9             1.2318    -4.4193    -2.9560 C.ar    
  10 O10            0.3291    -2.4424    -3.9689 O.3     
  11 C11            0.1116    -5.1220    -3.3589 C.ar    
  12 C12            0.1288    -6.5075    -3.3676 C.ar    
  13 C13            1.2755    -7.1884    -2.9701 C.ar    
  14 C14            2.3949    -6.4780    -2.5674 C.ar    
  15 C15            2.3727    -5.0957    -2.5662 C.ar    
  16 O16            1.2972    -8.5482    -2.9764 O.3     
  17 C17           -0.7240     2.0118     1.2503 C.2     
  18 O18           -0.0821     2.3880     2.2023 O.2     
  19 O19           -2.0654     2.0267     1.2971 O.3     
  20 N20            3.6163    -7.1990    -2.1440 N.pl3   
  21 O21            4.6003    -6.5745    -1.7900 O.2     
  22 O22            3.6373    -8.4168    -2.1495 O.2     
  23 O23           -0.9725    -7.2003    -3.7632 O.3     
  24 C24           -2.1133    -6.4353    -4.1572 C.3     
  25 H25           -0.5459     1.8868    -0.8726 H       
  26 H26            0.6044    -0.3639     0.8362 H       
  27 H27           -1.0158    -0.3818     0.0993 H       
  28 H28            1.3729     3.0414    -0.0597 H       
  29 H29            1.8695     1.7131     0.8092 H       
  30 H30            0.0037    -0.1389    -2.1480 H       
  31 H31            1.6239    -0.1210    -1.4111 H       
  32 H32            2.5389    -2.5527    -0.2754 H       
  33 H33            2.2166    -2.5344    -3.1338 H       
  34 H34           -0.5850    -2.7407    -3.8669 H       
  35 H35           -0.7772    -4.5911    -3.6666 H       
  36 H36            3.2459    -4.5432    -2.2521 H       
  37 H37            1.5973    -8.9329    -3.8113 H       
  38 H38           -2.4727     2.3469     2.1136 H       
  39 H39           -2.4412    -5.8157    -3.3225 H       
  40 H40           -1.8495    -5.7979    -5.0011 H       
  41 H41           -2.9194    -7.1087    -4.4485 H       
@<TRIPOS>BOND
   1    1    2 1
   2    1    3 1
   3    1   17 1
   4    1   25 1
   5    2    4 1
   6    2   26 1
   7    2   27 1
   8    3   28 1
   9    3   29 1
  10    4    5 1
  11    4   30 1
  12    4   31 1
  13    5    6 1
  14    5    7 2
  15    5    8 1
  16    6   32 1
  17    8    9 1
  18    8   10 1
  19    8   33 1
  20    9   11 ar
  21    9   15 ar
  22   10   34 1
  23   11   12 ar
  24   11   35 1
  25   12   13 ar
  26   12   23 1
  27   13   14 ar
  28   13   16 1
  29   14   15 ar
  30   14   20 1
  31   15   36 1
  32   16   37 1
  33   17   18 2
  34   17   19 1
  35   19   38 1
  36   20   21 2
  37   20   22 2
  38   23   24 1
  39   24   39 1
  40   24   40 1
  41   24   41 1

#	End of record

