#	Name: ASD05313235
#	Creating user name:	WinNT
#	Creation time:	15. 06. 2019 20:59

#	Modifying user name:	WinNT
#	Modification time:	15. 06. 2019 20:59

#	Program:	/corina/corina34_cracker 3.40 0067  02.08.2006

@<TRIPOS>MOLECULE
ASD05313235
  46   49    0    0    0
SMALL
NO_CHARGES


@<TRIPOS>ATOM
   1 C1            -0.0739     0.8187     1.0250 C.2     
   2 C2             0.1129    -0.6198     0.5962 C.3     
   3 N3             0.9287     1.7294     1.0512 N.pl3   
   4 N4             1.4551    -0.7208    -0.0056 N.am    
   5 C5             2.5699    -0.0410     0.6717 C.3     
   6 C6             2.3165     1.4707     0.6628 C.3     
   7 N7            -1.1738     1.3876     1.4248 N.2     
   8 C8            -0.9299     2.6705     1.7237 C.2     
   9 C9             0.3920     2.9100     1.4979 C.2     
  10 C10           -1.9392     3.6713     2.2246 C.3     
  11 F11           -3.1630     3.0298     2.4436 F       
  12 F12           -1.4851     4.2314     3.4235 F       
  13 F13           -2.1063     4.6819     1.2717 F       
  14 C14            1.1074     4.1890     1.6978 C.ar    
  15 C15            0.5444     5.3843     1.2491 C.ar    
  16 C16            1.2167     6.5741     1.4390 C.ar    
  17 C17            2.4466     6.5836     2.0725 C.ar    
  18 C18            3.0103     5.4019     2.5197 C.ar    
  19 C19            2.3456     4.2061     2.3410 C.ar    
  20 C20            1.6548    -1.4160    -1.1428 C.2     
  21 O21            2.7466    -1.4064    -1.6773 O.2     
  22 C22            0.5466    -2.1899    -1.7399 C.ar    
  23 C23            0.3155    -2.1367    -3.1169 C.ar    
  24 C24           -0.7223    -2.8629    -3.6676 C.ar    
  25 C25           -1.5313    -3.6405    -2.8590 C.ar    
  26 C26           -1.3076    -3.6968    -1.4945 C.ar    
  27 C27           -0.2706    -2.9820    -0.9318 C.ar    
  28 C28           -0.9740    -2.8075    -5.1524 C.3     
  29 F29           -2.0687    -3.6185    -5.4704 F       
  30 F30           -1.2457    -1.4882    -5.5304 F       
  31 F31            0.1586    -3.2643    -5.8348 F       
  32 Cl32           1.3295    -1.1602    -4.1327 Cl      
  33 H33            0.0435    -1.2778     1.4624 H       
  34 H34           -0.6453    -0.8900    -0.1388 H       
  35 H35            2.6397    -0.3927     1.7010 H       
  36 H36            3.5009    -0.2574     0.1478 H       
  37 H37            2.4937     1.8637    -0.3383 H       
  38 H38            2.9890     1.9567     1.3697 H       
  39 H39           -0.4153     5.3781     0.7539 H       
  40 H40            0.7820     7.4999     1.0922 H       
  41 H41            2.9692     7.5174     2.2181 H       
  42 H42            3.9709     5.4159     3.0131 H       
  43 H43            2.7847     3.2848     2.6943 H       
  44 H44           -2.3417    -4.2061    -3.2945 H       
  45 H45           -1.9437    -4.3055    -0.8692 H       
  46 H46           -0.0945    -3.0314     0.1326 H       
@<TRIPOS>BOND
   1    1    2 1
   2    1    3 1
   3    1    7 2
   4    2    4 1
   5    2   33 1
   6    2   34 1
   7    3    6 1
   8    3    9 1
   9    4    5 1
  10    4   20 am
  11    5    6 1
  12    5   35 1
  13    5   36 1
  14    6   37 1
  15    6   38 1
  16    7    8 1
  17    8    9 2
  18    8   10 1
  19    9   14 1
  20   10   11 1
  21   10   12 1
  22   10   13 1
  23   14   15 ar
  24   14   19 ar
  25   15   16 ar
  26   15   39 1
  27   16   17 ar
  28   16   40 1
  29   17   18 ar
  30   17   41 1
  31   18   19 ar
  32   18   42 1
  33   19   43 1
  34   20   21 2
  35   20   22 1
  36   22   23 ar
  37   22   27 ar
  38   23   24 ar
  39   23   32 1
  40   24   25 ar
  41   24   28 1
  42   25   26 ar
  43   25   44 1
  44   26   27 ar
  45   26   45 1
  46   27   46 1
  47   28   29 1
  48   28   30 1
  49   28   31 1

#	End of record

