#	Name: ASD08150174
#	Creating user name:	WinNT
#	Creation time:	15. 06. 2019 21:15

#	Modifying user name:	WinNT
#	Modification time:	15. 06. 2019 21:15

#	Program:	/corina/corina34_cracker 3.40 0067  02.08.2006

@<TRIPOS>MOLECULE
ASD08150174
  74   78    0    0    0
SMALL
NO_CHARGES


@<TRIPOS>ATOM
   1 O1             1.2336     1.0522     0.8234 O.3     
   2 C2             1.2315    -0.2601     0.5645 C.2     
   3 N3             2.3994    -0.7222     0.0974 N.am    
   4 C4             3.3531     0.3944     0.0114 C.3     
   5 C5             2.5443     1.6069     0.5115 C.3     
   6 O6             0.2597    -0.9684     0.7374 O.2     
   7 C7             3.1879     2.2004     1.7662 C.3     
   8 C8             4.1780    -3.7188    -0.7162 C.ar    
   9 N9             3.9193    -2.4622    -0.3867 N.ar    
  10 C10            2.6663    -2.0420    -0.2491 C.ar    
  11 C11            1.6228    -2.9435    -0.4567 C.ar    
  12 C12            1.9353    -4.2472    -0.7997 C.ar    
  13 N13            3.2082    -4.5979    -0.9198 N.ar    
  14 N14            5.4945    -4.1220    -0.8569 N.3     
  15 C15            5.5869    -5.5835    -0.9866 C.3     
  16 C16            7.0503    -5.9800    -1.1994 C.3     
  17 O17            7.8366    -5.4819    -0.1136 O.3     
  18 C18            7.7703    -4.0618     0.0413 C.3     
  19 C19            6.3142    -3.6458     0.2667 C.3     
  20 Cl20           0.6750    -5.4103    -1.0690 Cl      
  21 C21            3.8020     0.6076    -1.4356 C.3     
  22 O22            4.5544    -0.5259    -1.8728 O.3     
  23 Si23           5.0103    -0.4563    -3.4372 Si      
  24 C24            5.5696    -2.1478    -3.9987 C.ar    
  25 C25            4.8555    -2.8250    -4.9694 C.ar    
  26 C26            5.2694    -4.0768    -5.3849 C.ar    
  27 C27            6.3978    -4.6511    -4.8300 C.ar    
  28 C28            7.1124    -3.9735    -3.8600 C.ar    
  29 C29            6.7010    -2.7199    -3.4476 C.ar    
  30 C30            3.5657     0.1006    -4.4825 C.ar    
  31 C31            2.5850    -0.8039    -4.8443 C.ar    
  32 C32            1.5160    -0.3918    -5.6178 C.ar    
  33 C33            1.4276     0.9249    -6.0292 C.ar    
  34 C34            2.4078     1.8297    -5.6667 C.ar    
  35 C35            3.4745     1.4185    -4.8895 C.ar    
  36 C36            6.4137     0.7549    -3.6217 C.3     
  37 C37            7.7111     0.1112    -3.1283 C.3     
  38 C38            6.5640     1.1409    -5.0946 C.3     
  39 C39            6.1188     2.0073    -2.7938 C.3     
  40 H40            4.2124     0.2146     0.6575 H       
  41 H41            2.4635     2.3613    -0.2711 H       
  42 H42            3.2801     1.4264     2.5281 H       
  43 H43            4.1768     2.5868     1.5192 H       
  44 H44            2.5654     3.0109     2.1452 H       
  45 H45            0.5942    -2.6314    -0.3519 H       
  46 H46            5.2107    -6.0540    -0.0782 H       
  47 H47            4.9932    -5.9114    -1.8398 H       
  48 H48            7.1310    -7.0662    -1.2390 H       
  49 H49            7.4105    -5.5532    -2.1355 H       
  50 H50            8.3718    -3.7607     0.8991 H       
  51 H51            8.1515    -3.5792    -0.8587 H       
  52 H52            6.2514    -2.5594     0.3283 H       
  53 H53            5.9497    -4.0854     1.1951 H       
  54 H54            2.9266     0.7306    -2.0732 H       
  55 H55            4.4235     1.5011    -1.4953 H       
  56 H56            3.9740    -2.3763    -5.4029 H       
  57 H57            4.7111    -4.6062    -6.1428 H       
  58 H58            6.7208    -5.6294    -5.1541 H       
  59 H59            7.9938    -4.4224    -3.4262 H       
  60 H60            7.2614    -2.1889    -2.6924 H       
  61 H61            2.6541    -1.8327    -4.5229 H       
  62 H62            0.7502    -1.0987    -5.9011 H       
  63 H63            0.5928     1.2467    -6.6342 H       
  64 H64            2.3388     2.8583    -5.9884 H       
  65 H65            4.2384     2.1262    -4.6032 H       
  66 H66            7.8984    -0.8046    -3.6890 H       
  67 H67            8.5396     0.8038    -3.2765 H       
  68 H68            7.6195    -0.1242    -2.0680 H       
  69 H69            5.6165     1.5312    -5.4664 H       
  70 H70            7.3353     1.9048    -5.1932 H       
  71 H71            6.8471     0.2619    -5.6735 H       
  72 H72            6.1983     1.7687    -1.7332 H       
  73 H73            6.8376     2.7870    -3.0457 H       
  74 H74            5.1103     2.3584    -3.0127 H       
@<TRIPOS>BOND
   1    1    2 1
   2    1    5 1
   3    2    3 am
   4    2    6 2
   5    3    4 1
   6    3   10 1
   7    4    5 1
   8    4   21 1
   9    4   40 1
  10    5    7 1
  11    5   41 1
  12    7   42 1
  13    7   43 1
  14    7   44 1
  15    8    9 ar
  16    8   13 ar
  17    8   14 1
  18    9   10 ar
  19   10   11 ar
  20   11   12 ar
  21   11   45 1
  22   12   13 ar
  23   12   20 1
  24   14   15 1
  25   14   19 1
  26   15   16 1
  27   15   46 1
  28   15   47 1
  29   16   17 1
  30   16   48 1
  31   16   49 1
  32   17   18 1
  33   18   19 1
  34   18   50 1
  35   18   51 1
  36   19   52 1
  37   19   53 1
  38   21   22 1
  39   21   54 1
  40   21   55 1
  41   22   23 1
  42   23   24 1
  43   23   30 1
  44   23   36 1
  45   24   25 ar
  46   24   29 ar
  47   25   26 ar
  48   25   56 1
  49   26   27 ar
  50   26   57 1
  51   27   28 ar
  52   27   58 1
  53   28   29 ar
  54   28   59 1
  55   29   60 1
  56   30   31 ar
  57   30   35 ar
  58   31   32 ar
  59   31   61 1
  60   32   33 ar
  61   32   62 1
  62   33   34 ar
  63   33   63 1
  64   34   35 ar
  65   34   64 1
  66   35   65 1
  67   36   37 1
  68   36   39 1
  69   36   38 1
  70   37   66 1
  71   37   67 1
  72   37   68 1
  73   38   69 1
  74   38   70 1
  75   38   71 1
  76   39   72 1
  77   39   73 1
  78   39   74 1

#	End of record

