#	Name: ASD02398072
#	Creating user name:	WinNT
#	Creation time:	15. 06. 2019 20:20

#	Modifying user name:	WinNT
#	Modification time:	15. 06. 2019 20:20

#	Program:	/corina/corina34_cracker 3.40 0067  02.08.2006

@<TRIPOS>MOLECULE
ASD02398072
  47   48    0    0    0
SMALL
NO_CHARGES


@<TRIPOS>ATOM
   1 C1            -0.0167     1.3833     0.0096 C.ar    
   2 C2             0.0021    -0.0041     0.0020 C.ar    
   3 C3            -1.1853    -0.7097     0.0095 C.ar    
   4 C4            -2.3921    -0.0347     0.0242 C.ar    
   5 C5            -2.4135     1.3476     0.0318 C.ar    
   6 C6            -1.2285     2.0581     0.0306 C.ar    
   7 C7             1.3169    -0.7404    -0.0149 C.3     
   8 C8             1.4199    -1.6239     1.2277 C.3     
   9 C9             0.4550    -2.7749     1.1199 C.2     
  10 C10            0.2032    -3.3268    -0.0621 C.2     
  11 C11            0.8689    -2.8076    -1.2677 C.2     
  12 C12            1.3987    -1.5893    -1.2559 C.2     
  13 C13            2.0829    -1.0554    -2.4879 C.3     
  14 S14            1.0106     0.1659    -3.2937 S.3     
  15 C15           -3.6860    -0.8071     0.0313 C.3     
  16 C16           -4.1047    -1.0727     1.4544 C.2     
  17 O17           -3.4223    -0.6755     2.3690 O.2     
  18 O18           -5.2356    -1.7505     1.7060 O.3     
  19 C19            1.9899     0.6841    -4.7300 C.3     
  20 C20            1.2104     1.7314    -5.5278 C.3     
  21 F21            0.9525     2.8402    -4.7146 F       
  22 F22            1.9657     2.1310    -6.6355 F       
  23 F23            0.0002     1.1805    -5.9628 F       
  24 C24           -0.7603    -4.4807    -0.1679 C.3     
  25 F25           -1.2586    -4.7901     1.1021 F       
  26 F26           -1.8194    -4.1280    -1.0112 F       
  27 F27           -0.0973    -5.5951    -0.6931 F       
  28 O28            1.1501     2.0799     0.0022 O.3     
  29 C29            1.0546     3.5057     0.0108 C.3     
  30 H30           -1.1711    -1.7896     0.0036 H       
  31 H31           -3.3573     1.8725     0.0432 H       
  32 H32           -1.2458     3.1379     0.0366 H       
  33 H33            2.1351    -0.0202    -0.0160 H       
  34 H34            2.4356    -2.0098     1.3143 H       
  35 H35            1.1817    -1.0335     2.1125 H       
  36 H36           -0.0333    -3.1530     2.0059 H       
  37 H37            0.9268    -3.4151    -2.1588 H       
  38 H38            3.0234    -0.5827    -2.2051 H       
  39 H39            2.2814    -1.8758    -3.1776 H       
  40 H40           -4.4587    -0.2262    -0.4723 H       
  41 H41           -3.5465    -1.7546    -0.4892 H       
  42 H42           -5.4627    -1.8964     2.6345 H       
  43 H43            2.9328     1.1133    -4.3912 H       
  44 H44            2.1908    -0.1798    -5.3636 H       
  45 H45            0.5092     3.8386    -0.8722 H       
  46 H46            0.5262     3.8290     0.9076 H       
  47 H47            2.0556     3.9369     0.0036 H       
@<TRIPOS>BOND
   1    1    2 ar
   2    1   28 1
   3    1    6 ar
   4    2    3 ar
   5    2    7 1
   6    3    4 ar
   7    3   30 1
   8    4    5 ar
   9    4   15 1
  10    5    6 ar
  11    5   31 1
  12    6   32 1
  13    7    8 1
  14    7   12 1
  15    7   33 1
  16    8    9 1
  17    8   34 1
  18    8   35 1
  19    9   10 2
  20    9   36 1
  21   10   11 1
  22   10   24 1
  23   11   12 2
  24   11   37 1
  25   12   13 1
  26   13   14 1
  27   13   38 1
  28   13   39 1
  29   14   19 1
  30   15   16 1
  31   15   40 1
  32   15   41 1
  33   16   17 2
  34   16   18 1
  35   18   42 1
  36   19   20 1
  37   19   43 1
  38   19   44 1
  39   20   21 1
  40   20   22 1
  41   20   23 1
  42   24   25 1
  43   24   26 1
  44   24   27 1
  45   28   29 1
  46   29   45 1
  47   29   46 1
  48   29   47 1

#	End of record

