#	Name: ASD01916499
#	Creating user name:	WinNT
#	Creation time:	15. 06. 2019 20:07

#	Modifying user name:	WinNT
#	Modification time:	15. 06. 2019 20:07

#	Program:	/corina/corina34_cracker 3.40 0067  02.08.2006

@<TRIPOS>MOLECULE
ASD01916499
  42   45    0    0    0
SMALL
NO_CHARGES


@<TRIPOS>ATOM
   1 C1            -0.0171     1.4104     0.0098 C.ar    
   2 C2             0.0021    -0.0041     0.0020 C.ar    
   3 C3            -1.1926    -0.7250     0.0339 C.ar    
   4 C4            -2.3847    -0.0634     0.0619 C.ar    
   5 C5            -2.4223     1.3396     0.0570 C.ar    
   6 C6            -1.2416     2.0772     0.0329 C.ar    
   7 N7             1.1573     2.0795     0.0022 N.2     
   8 C8             2.3199     1.4650    -0.0350 C.2     
   9 N9             2.4194     0.1093    -0.1264 N.am    
  10 C10            1.3082    -0.6683    -0.0512 C.2     
  11 C11           -3.6837     2.0172     0.0771 C.1     
  12 C12           -4.7178     2.5727     0.0936 C.1     
  13 C13           -5.9792     3.2503     0.1137 C.ar    
  14 N14           -6.0146     4.5793     0.1091 N.ar    
  15 C15           -7.1543     5.2389     0.1271 C.ar    
  16 C16           -8.3637     4.5681     0.1515 C.ar    
  17 C17           -8.3739     3.1797     0.1572 C.ar    
  18 C18           -7.1641     2.5099     0.1322 C.ar    
  19 O19            1.3943    -1.8825    -0.0283 O.2     
  20 O20            3.4196     2.2402     0.0667 O.3     
  21 C21            4.6830     1.7499    -0.3361 C.3     
  22 C22            4.8786     0.2984     0.0676 C.3     
  23 C23            3.6990    -0.5605    -0.3466 C.3     
  24 C24            6.1463    -0.2390    -0.5996 C.3     
  25 C25            5.0443     0.2205     1.5866 C.3     
  26 H26           -1.1730    -1.8048     0.0361 H       
  27 H27           -3.3077    -0.6237     0.0876 H       
  28 H28           -1.2739     3.1568     0.0316 H       
  29 H29           -7.1445     6.3188     0.1230 H       
  30 H30           -9.2922     5.1196     0.1665 H       
  31 H31           -9.3062     2.6348     0.1761 H       
  32 H32           -7.1354     1.4303     0.1354 H       
  33 H33            4.7668     1.8317    -1.4198 H       
  34 H34            5.4628     2.3553     0.1259 H       
  35 H35            3.7167    -1.4861     0.2288 H       
  36 H36            3.7931    -0.8030    -1.4051 H       
  37 H37            7.0045     0.3506    -0.2770 H       
  38 H38            6.2933    -1.2807    -0.3144 H       
  39 H39            6.0443    -0.1697    -1.6826 H       
  40 H40            4.1525     0.6190     2.0703 H       
  41 H41            5.1852    -0.8187     1.8838 H       
  42 H42            5.9132     0.8056     1.8878 H       
@<TRIPOS>BOND
   1    1    2 ar
   2    1    7 1
   3    1    6 ar
   4    2    3 ar
   5    2   10 1
   6    3    4 ar
   7    3   26 1
   8    4    5 ar
   9    4   27 1
  10    5    6 ar
  11    5   11 1
  12    6   28 1
  13    7    8 2
  14    8    9 1
  15    8   20 1
  16    9   10 am
  17    9   23 1
  18   10   19 2
  19   11   12 3
  20   12   13 1
  21   13   14 ar
  22   13   18 ar
  23   14   15 ar
  24   15   16 ar
  25   15   29 1
  26   16   17 ar
  27   16   30 1
  28   17   18 ar
  29   17   31 1
  30   18   32 1
  31   20   21 1
  32   21   22 1
  33   21   33 1
  34   21   34 1
  35   22   23 1
  36   22   24 1
  37   22   25 1
  38   23   35 1
  39   23   36 1
  40   24   37 1
  41   24   38 1
  42   24   39 1
  43   25   40 1
  44   25   41 1
  45   25   42 1

#	End of record

