#	Name: ASD09610049
#	Creating user name:	WinNT
#	Creation time:	15. 06. 2019 21:22

#	Modifying user name:	WinNT
#	Modification time:	15. 06. 2019 21:22

#	Program:	/corina/corina34_cracker 3.40 0067  02.08.2006

@<TRIPOS>MOLECULE
ASD09610049
  31   32    0    0    0
SMALL
NO_CHARGES


@<TRIPOS>ATOM
   1 C1            -0.0160     1.3293     0.0094 C.2     
   2 C2             0.0021    -0.0041     0.0020 C.2     
   3 C3             1.2655    -0.5706    -0.0131 C.2     
   4 C4             2.2736     0.3046    -0.0180 C.2     
   5 S5             1.6324     1.9424    -0.0031 S.3     
   6 S6            -1.4696     2.3250     0.0219 S.o2    
   7 O7            -1.0971     3.5857    -0.5175 O.2     
   8 O8            -2.5096     1.5237    -0.5217 O.2     
   9 N9            -1.8662     2.5934     1.6072 N.am    
  10 N10           -0.9612     3.2454     2.4550 N.pl3   
  11 C11           -0.9970     4.7045     2.5816 C.3     
  12 C12           -1.8150     5.0759     3.7476 C.1     
  13 C13           -2.4674     5.3721     4.6776 C.1     
  14 C14           -0.0249     2.5043     3.1795 C.ar    
  15 C15            0.8732     3.1491     4.0205 C.ar    
  16 C16            1.7974     2.4133     4.7358 C.ar    
  17 C17            1.8294     1.0360     4.6155 C.ar    
  18 C18            0.9369     0.3909     3.7791 C.ar    
  19 C19            0.0066     1.1203     3.0650 C.ar    
  20 Cl20           3.9592    -0.1102    -0.0358 Cl      
  21 H21           -0.9004    -0.5972     0.0078 H       
  22 H22            1.4234    -1.6390    -0.0200 H       
  23 H23           -2.7251     2.2992     1.9488 H       
  24 H24            0.0167     5.0827     2.7135 H       
  25 H25           -1.4316     5.1368     1.6803 H       
  26 H26           -3.0508     5.6371     5.5094 H       
  27 H27            0.8489     4.2247     4.1146 H       
  28 H28            2.4961     2.9140     5.3896 H       
  29 H29            2.5534     0.4630     5.1757 H       
  30 H30            0.9646    -0.6848     3.6875 H       
  31 H31           -0.6931     0.6154     2.4154 H       
@<TRIPOS>BOND
   1    1    2 2
   2    1    5 1
   3    1    6 1
   4    2    3 1
   5    2   21 1
   6    3    4 2
   7    3   22 1
   8    4    5 1
   9    4   20 1
  10    6    7 2
  11    6    8 2
  12    6    9 am
  13    9   10 1
  14    9   23 1
  15   10   11 1
  16   10   14 1
  17   11   12 1
  18   11   24 1
  19   11   25 1
  20   12   13 3
  21   13   26 1
  22   14   15 ar
  23   14   19 ar
  24   15   16 ar
  25   15   27 1
  26   16   17 ar
  27   16   28 1
  28   17   18 ar
  29   17   29 1
  30   18   19 ar
  31   18   30 1
  32   19   31 1

#	End of record

