#	Name: ASD01230683
#	Creating user name:	WinNT
#	Creation time:	15. 06. 2019 19:14

#	Modifying user name:	WinNT
#	Modification time:	15. 06. 2019 19:14

#	Program:	/corina/corina34_cracker 3.40 0067  02.08.2006

@<TRIPOS>MOLECULE
ASD01230683
  54   58    0    0    0
SMALL
NO_CHARGES


@<TRIPOS>ATOM
   1 S1            -0.0073     1.5617    -0.2002 S.o2    
   2 N2             0.0056    -0.0852    -0.1598 N.am    
   3 C3             1.0583    -0.7964    -0.0748 C.2     
   4 N4             2.3283    -0.2899     0.0357 N.pl3   
   5 C5             2.5725     1.0546     0.5460 C.3     
   6 C6             1.7342     2.0591    -0.2472 C.3     
   7 C7             0.9601    -2.3133    -0.0784 C.3     
   8 C8             2.0408    -2.8421     0.8680 C.3     
   9 C9             3.4333    -2.4607     0.3837 C.3     
  10 C10            3.4393    -1.1477    -0.3897 C.3     
  11 C11           -0.4008    -2.7401     0.4080 C.ar    
  12 C12           -1.2265    -3.4844    -0.4137 C.ar    
  13 C13           -2.4749    -3.8758     0.0325 C.ar    
  14 C14           -2.8975    -3.5234     1.3006 C.ar    
  15 C15           -2.0715    -2.7799     2.1227 C.ar    
  16 C16           -0.8213    -2.3921     1.6781 C.ar    
  17 C17           -4.2589    -3.9493     1.7867 C.3     
  18 C18           -4.5030    -5.4642     1.6856 C.3     
  19 C19           -5.2060    -5.3625     3.0495 C.3     
  20 C20           -4.3433    -4.1170     3.3130 C.3     
  21 C21           -5.3739    -3.1181     1.2063 C.ar    
  22 C22           -5.4834    -1.7805     1.5375 C.ar    
  23 C23           -6.5062    -1.0180     1.0052 C.ar    
  24 C24           -7.4193    -1.5931     0.1413 C.ar    
  25 C25           -7.3094    -2.9305    -0.1907 C.ar    
  26 C26           -6.2840    -3.6919     0.3383 C.ar    
  27 O27           -0.6451     1.8733    -1.4312 O.2     
  28 O28           -0.5958     1.9343     1.0384 O.2     
  29 H29            2.2942     1.1000     1.5988 H       
  30 H30            3.6295     1.2979     0.4383 H       
  31 H31            2.0777     2.0826    -1.2815 H       
  32 H32            1.8412     3.0501     0.1938 H       
  33 H33            1.1309    -2.6935    -1.0856 H       
  34 H34            1.8813    -2.4235     1.8617 H       
  35 H35            1.9670    -3.9282     0.9231 H       
  36 H36            4.0932    -2.3656     1.2460 H       
  37 H37            3.8116    -3.2528    -0.2625 H       
  38 H38            3.3429    -1.3580    -1.4549 H       
  39 H39            4.3816    -0.6299    -0.2106 H       
  40 H40           -0.8964    -3.7597    -1.4045 H       
  41 H41           -3.1203    -4.4566    -0.6097 H       
  42 H42           -2.4017    -2.5043     3.1133 H       
  43 H43           -0.1745    -1.8144     2.3217 H       
  44 H44           -5.1698    -5.7456     0.8705 H       
  45 H45           -3.5882    -6.0564     1.7090 H       
  46 H46           -6.2721    -5.1477     2.9762 H       
  47 H47           -4.9860    -6.1954     3.7173 H       
  48 H48           -3.3849    -4.3409     3.7814 H       
  49 H49           -4.8813    -3.3109     3.8118 H       
  50 H50           -4.7700    -1.3312     2.2125 H       
  51 H51           -6.5921     0.0268     1.2645 H       
  52 H52           -8.2189    -0.9976    -0.2741 H       
  53 H53           -8.0230    -3.3799    -0.8654 H       
  54 H54           -6.1959    -4.7359     0.0761 H       
@<TRIPOS>BOND
   1    1    2 am
   2    1    6 1
   3    1   27 2
   4    1   28 2
   5    2    3 2
   6    3    4 1
   7    3    7 1
   8    4    5 1
   9    4   10 1
  10    5    6 1
  11    5   29 1
  12    5   30 1
  13    6   31 1
  14    6   32 1
  15    7    8 1
  16    7   11 1
  17    7   33 1
  18    8    9 1
  19    8   34 1
  20    8   35 1
  21    9   10 1
  22    9   36 1
  23    9   37 1
  24   10   38 1
  25   10   39 1
  26   11   12 ar
  27   11   16 ar
  28   12   13 ar
  29   12   40 1
  30   13   14 ar
  31   13   41 1
  32   14   15 ar
  33   14   17 1
  34   15   16 ar
  35   15   42 1
  36   16   43 1
  37   17   18 1
  38   17   20 1
  39   17   21 1
  40   18   19 1
  41   18   44 1
  42   18   45 1
  43   19   20 1
  44   19   46 1
  45   19   47 1
  46   20   48 1
  47   20   49 1
  48   21   22 ar
  49   21   26 ar
  50   22   23 ar
  51   22   50 1
  52   23   24 ar
  53   23   51 1
  54   24   25 ar
  55   24   52 1
  56   25   26 ar
  57   25   53 1
  58   26   54 1

#	End of record

