#	Name: ASD01882640
#	Creating user name:	WinNT
#	Creation time:	15. 06. 2019 19:44

#	Modifying user name:	WinNT
#	Modification time:	15. 06. 2019 19:44

#	Program:	/corina/corina34_cracker 3.40 0067  02.08.2006

@<TRIPOS>MOLECULE
ASD01882640
  64   66    0    0    0
SMALL
NO_CHARGES


@<TRIPOS>ATOM
   1 C1            -0.0672     1.2750     0.0565 C.ar    
   2 C2             0.0650    -0.1000    -0.0125 C.ar    
   3 C3             1.3175    -0.6746    -0.0747 C.ar    
   4 C4             2.4567     0.1333    -0.0681 C.ar    
   5 C5             2.3216     1.5203     0.0016 C.ar    
   6 C6             1.0592     2.0863     0.0636 C.ar    
   7 O7             0.9230     3.4369     0.1310 O.3     
   8 C8            -0.4084     3.9524     0.1921 C.3     
   9 C9            -0.3610     5.4800     0.2628 C.3     
  10 C10           -1.7865     6.0320     0.3282 C.3     
  11 C11           -1.7392     7.5596     0.3990 C.3     
  12 O12           -3.0705     8.0751     0.4601 O.3     
  13 C13           -3.2065     9.4233     0.5274 C.ar    
  14 C14           -4.6137    11.3621     0.6639 C.ar    
  15 C15           -4.4725     9.9868     0.5947 C.ar    
  16 C16           -2.0743    10.2344     0.5343 C.ar    
  17 C17           -2.1974    11.5913     0.6026 C.ar    
  18 C18           -3.4686    12.1787     0.6659 C.ar    
  19 C19           -5.6928     9.1025     0.5920 C.3     
  20 O20           -5.8485    11.9186     0.7303 O.3     
  21 C21           -3.6035    13.6356     0.7383 C.2     
  22 O22           -4.7052    14.1406     0.7968 O.2     
  23 C23           -2.3741    14.5070     0.7401 C.3     
  24 C24           -2.7909    15.9769     0.8220 C.3     
  25 C25            3.5454     2.3996     0.0097 C.3     
  26 C26            3.7999    -0.4785    -0.1340 C.2     
  27 O27            3.9336    -1.8177    -0.0779 O.3     
  28 O28            4.7837     0.2262    -0.2389 O.2     
  29 C29           -3.3675    16.2996     2.2229 C.3     
  30 C30           -1.5576    16.8955     0.6998 C.3     
  31 C31           -1.7899    18.0736     1.6620 C.3     
  32 C32           -3.1563    17.8299     2.3353 C.3     
  33 H33           -1.0505     1.7193     0.1004 H       
  34 H34           -0.8152    -0.7258    -0.0173 H       
  35 H35            1.4172    -1.7487    -0.1281 H       
  36 H36           -0.9576     3.6468    -0.6984 H       
  37 H37           -0.9085     3.5630     1.0789 H       
  38 H38            0.1882     5.7857     1.1534 H       
  39 H39            0.1390     5.8695    -0.6239 H       
  40 H40           -2.3357     5.7263    -0.5623 H       
  41 H41           -2.2866     5.6425     1.2150 H       
  42 H42           -1.1900     7.8653     1.2895 H       
  43 H43           -1.2391     7.9491    -0.4878 H       
  44 H44           -1.0928     9.7863     0.4857 H       
  45 H45           -1.3147    12.2136     0.6083 H       
  46 H46           -6.0197     8.9376    -0.4346 H       
  47 H47           -5.4492     8.1457     1.0539 H       
  48 H48           -6.4921     9.5846     1.1549 H       
  49 H49           -6.1779    12.0385     1.6316 H       
  50 H50           -1.7528    14.2571     1.6002 H       
  51 H51           -1.8090    14.3402    -0.1769 H       
  52 H52           -3.5187    16.2099     0.0448 H       
  53 H53            3.8829     2.5620    -1.0139 H       
  54 H54            3.3013     3.3579     0.4682 H       
  55 H55            4.3373     1.9148     0.5808 H       
  56 H56            4.8323    -2.1716    -0.1248 H       
  57 H57           -4.4278    16.0514     2.2707 H       
  58 H58           -2.8115    15.7748     2.9998 H       
  59 H59           -0.6572    16.3517     0.9859 H       
  60 H60           -1.4643    17.2612    -0.3227 H       
  61 H61           -1.0023    18.1016     2.4150 H       
  62 H62           -1.8094    19.0112     1.1064 H       
  63 H63           -3.9441    18.3637     1.8038 H       
  64 H64           -3.1260    18.1350     3.3813 H       
@<TRIPOS>BOND
   1    1    2 ar
   2    1    6 ar
   3    1   33 1
   4    2    3 ar
   5    2   34 1
   6    3    4 ar
   7    3   35 1
   8    4    5 ar
   9    4   26 1
  10    5    6 ar
  11    5   25 1
  12    6    7 1
  13    7    8 1
  14    8    9 1
  15    8   36 1
  16    8   37 1
  17    9   10 1
  18    9   38 1
  19    9   39 1
  20   10   11 1
  21   10   40 1
  22   10   41 1
  23   11   12 1
  24   11   42 1
  25   11   43 1
  26   12   13 1
  27   13   16 ar
  28   13   15 ar
  29   14   15 ar
  30   14   18 ar
  31   14   20 1
  32   15   19 1
  33   16   17 ar
  34   16   44 1
  35   17   18 ar
  36   17   45 1
  37   18   21 1
  38   19   46 1
  39   19   47 1
  40   19   48 1
  41   20   49 1
  42   21   22 2
  43   21   23 1
  44   23   24 1
  45   23   50 1
  46   23   51 1
  47   24   30 1
  48   24   29 1
  49   24   52 1
  50   25   53 1
  51   25   54 1
  52   25   55 1
  53   26   27 1
  54   26   28 2
  55   27   56 1
  56   29   32 1
  57   29   57 1
  58   29   58 1
  59   30   31 1
  60   30   59 1
  61   30   60 1
  62   31   32 1
  63   31   61 1
  64   31   62 1
  65   32   63 1
  66   32   64 1

#	End of record

