#	Name: ASD01230290
#	Creating user name:	WinNT
#	Creation time:	15. 06. 2019 19:12

#	Modifying user name:	WinNT
#	Modification time:	15. 06. 2019 19:12

#	Program:	/corina/corina34_cracker 3.40 0067  02.08.2006

@<TRIPOS>MOLECULE
ASD01230290
  37   39    0    0    0
SMALL
NO_CHARGES


@<TRIPOS>ATOM
   1 C1            -0.2096     1.3424     1.5451 C.ar    
   2 C2            -0.1482     0.1189     0.8627 C.ar    
   3 C3             1.0865    -0.3290     0.3938 C.ar    
   4 C4             2.2042     0.4584     0.6238 C.ar    
   5 C5             2.0654     1.6524     1.3041 C.ar    
   6 N6             0.8866     2.0569     1.7390 N.ar    
   7 N7            -1.4296     1.8095     2.0152 N.pl3   
   8 C8            -1.3748    -0.6850     0.6439 C.ar    
   9 C9            -1.6792    -1.1622    -0.6303 C.ar    
  10 C10           -2.8205    -1.9099    -0.8305 C.ar    
  11 C11           -3.6661    -2.1877     0.2352 C.ar    
  12 C12           -3.3659    -1.7135     1.5052 C.ar    
  13 C13           -2.2231    -0.9701     1.7129 C.ar    
  14 O14           -4.7898    -2.9247     0.0348 O.3     
  15 C15           -5.9408    -2.2656    -0.2605 C.ar    
  16 C16           -5.9244    -0.8920    -0.4563 C.ar    
  17 C17           -7.0958    -0.2244    -0.7568 C.ar    
  18 C18           -8.2840    -0.9237    -0.8620 C.ar    
  19 C19           -8.3031    -2.2925    -0.6674 C.ar    
  20 C20           -7.1335    -2.9657    -0.3723 C.ar    
  21 C21           -9.5606    -0.1926    -1.1890 C.3     
  22 H22            1.1700    -1.2668    -0.1354 H       
  23 H23            3.1754     0.1406     0.2743 H       
  24 H24            2.9363     2.2654     1.4834 H       
  25 H25           -2.2359     1.2899     1.8712 H       
  26 H26           -1.4756     2.6554     2.4876 H       
  27 H27           -1.0221    -0.9461    -1.4596 H       
  28 H28           -3.0570    -2.2795    -1.8174 H       
  29 H29           -4.0259    -1.9307     2.3321 H       
  30 H30           -1.9876    -0.6056     2.7019 H       
  31 H31           -4.9967    -0.3452    -0.3735 H       
  32 H32           -7.0836     0.8447    -0.9093 H       
  33 H33           -9.2326    -2.8363    -0.7498 H       
  34 H34           -7.1483    -4.0355    -0.2244 H       
  35 H35           -9.6945    -0.1610    -2.2703 H       
  36 H36          -10.4037    -0.7121    -0.7335 H       
  37 H37           -9.5070     0.8241    -0.7996 H       
@<TRIPOS>BOND
   1    1    2 ar
   2    1    6 ar
   3    1    7 1
   4    2    3 ar
   5    2    8 1
   6    3    4 ar
   7    3   22 1
   8    4    5 ar
   9    4   23 1
  10    5    6 ar
  11    5   24 1
  12    7   25 1
  13    7   26 1
  14    8    9 ar
  15    8   13 ar
  16    9   10 ar
  17    9   27 1
  18   10   11 ar
  19   10   28 1
  20   11   12 ar
  21   11   14 1
  22   12   13 ar
  23   12   29 1
  24   13   30 1
  25   14   15 1
  26   15   16 ar
  27   15   20 ar
  28   16   17 ar
  29   16   31 1
  30   17   18 ar
  31   17   32 1
  32   18   19 ar
  33   18   21 1
  34   19   20 ar
  35   19   33 1
  36   20   34 1
  37   21   35 1
  38   21   36 1
  39   21   37 1

#	End of record

