#	Name: ASD01200005
#	Creating user name:	WinNT
#	Creation time:	15. 06. 2019 19:08

#	Modifying user name:	WinNT
#	Modification time:	15. 06. 2019 19:08

#	Program:	/corina/corina34_cracker 3.40 0067  02.08.2006

@<TRIPOS>MOLECULE
ASD01200005
  60   63    0    0    0
SMALL
NO_CHARGES


@<TRIPOS>ATOM
   1 C1            -0.1601     1.8432    -0.1524 C.ar    
   2 C2            -0.0181     0.3439    -0.2071 C.3     
   3 C3            -0.7651    -0.1882    -1.4029 C.2     
   4 N4            -0.6784    -1.4939    -1.7253 N.am    
   5 C5            -1.4486    -2.0062    -2.7629 C.2     
   6 O6            -1.4442     0.5587    -2.0752 O.2     
   7 C7            -0.5961    -0.2700     1.0697 C.3     
   8 C8             0.2416     0.1705     2.2718 C.3     
   9 S9            -1.4388    -3.6367    -3.2771 S.3     
  10 C10           -2.6365    -3.2648    -4.5143 C.2     
  11 C11           -2.9301    -1.9659    -4.4287 C.2     
  12 N12           -2.2828    -1.3184    -3.4780 N.2     
  13 C13           -0.4110    -0.3186     3.5767 C.3     
  14 C14            0.6132    -1.2478     4.2603 C.3     
  15 C15            1.9788    -0.7960     3.6856 C.3     
  16 C16            1.6396    -0.4786     2.2081 C.3     
  17 C17            0.9635     2.6464    -0.2100 C.ar    
  18 C18            0.8333     4.0217    -0.1598 C.ar    
  19 C19           -0.4205     4.5938    -0.0525 C.ar    
  20 C20           -1.5442     3.7906     0.0042 C.ar    
  21 C21           -1.4143     2.4154    -0.0504 C.ar    
  22 S22           -0.5864     6.3467     0.0126 S.o2    
  23 O23           -1.8044     6.5577     0.7135 O.2     
  24 O24            0.6522     6.7964     0.5445 O.2     
  25 C25           -0.7547     6.8502    -1.7220 C.3     
  26 C26           -0.9077     8.3706    -1.7991 C.3     
  27 C27           -1.0475     8.7889    -3.2402 C.ar    
  28 C28           -2.3004     8.8652    -3.8193 C.ar    
  29 C29           -2.4286     9.2488    -5.1411 C.ar    
  30 C30           -1.3040     9.5566    -5.8837 C.ar    
  31 C31           -0.0512     9.4812    -5.3043 C.ar    
  32 C32            0.0767     9.1017    -3.9812 C.ar    
  33 H33            1.0365     0.0816    -0.2912 H       
  34 H34           -0.0786    -2.0762    -1.2333 H       
  35 H35           -1.6247     0.0658     1.2010 H       
  36 H36           -0.5759    -1.3570     0.9916 H       
  37 H37            0.3336     1.2565     2.2846 H       
  38 H38           -3.0592    -3.9655    -5.2190 H       
  39 H39           -3.6429    -1.4843    -5.0817 H       
  40 H40           -0.6349     0.5300     4.2231 H       
  41 H41           -1.3245    -0.8698     3.3535 H       
  42 H42            0.5903    -1.1111     5.3414 H       
  43 H43            0.4161    -2.2883     4.0022 H       
  44 H44            2.3383     0.0954     4.1996 H       
  45 H45            2.7103    -1.6016     3.7496 H       
  46 H46            1.6083    -1.3948     1.6185 H       
  47 H47            2.3657     0.2196     1.7915 H       
  48 H48            1.9431     2.1994    -0.2939 H       
  49 H49            1.7112     4.6492    -0.2041 H       
  50 H50           -2.5237     4.2376     0.0884 H       
  51 H51           -2.2922     1.7879    -0.0061 H       
  52 H52            0.1330     6.5458    -2.2764 H       
  53 H53           -1.6344     6.3740    -2.1548 H       
  54 H54           -1.7954     8.6750    -1.2447 H       
  55 H55           -0.0280     8.8468    -1.3663 H       
  56 H56           -3.1790     8.6247    -3.2391 H       
  57 H57           -3.4074     9.3078    -5.5938 H       
  58 H58           -1.4041     9.8556    -6.9166 H       
  59 H59            0.8275     9.7213    -5.8846 H       
  60 H60            1.0555     9.0428    -3.5286 H       
@<TRIPOS>BOND
   1    1    2 1
   2    1   17 ar
   3    1   21 ar
   4    2    3 1
   5    2    7 1
   6    2   33 1
   7    3    4 am
   8    3    6 2
   9    4    5 1
  10    4   34 1
  11    5    9 1
  12    5   12 2
  13    7    8 1
  14    7   35 1
  15    7   36 1
  16    8   13 1
  17    8   16 1
  18    8   37 1
  19    9   10 1
  20   10   11 2
  21   10   38 1
  22   11   12 1
  23   11   39 1
  24   13   14 1
  25   13   40 1
  26   13   41 1
  27   14   15 1
  28   14   42 1
  29   14   43 1
  30   15   16 1
  31   15   44 1
  32   15   45 1
  33   16   46 1
  34   16   47 1
  35   17   18 ar
  36   17   48 1
  37   18   19 ar
  38   18   49 1
  39   19   20 ar
  40   19   22 1
  41   20   21 ar
  42   20   50 1
  43   21   51 1
  44   22   23 2
  45   22   24 2
  46   22   25 1
  47   25   26 1
  48   25   52 1
  49   25   53 1
  50   26   27 1
  51   26   54 1
  52   26   55 1
  53   27   28 ar
  54   27   32 ar
  55   28   29 ar
  56   28   56 1
  57   29   30 ar
  58   29   57 1
  59   30   31 ar
  60   30   58 1
  61   31   32 ar
  62   31   59 1
  63   32   60 1

#	End of record

