#	Name: ASD05872014
#	Creating user name:	WinNT
#	Creation time:	15. 06. 2019 21:04

#	Modifying user name:	WinNT
#	Modification time:	15. 06. 2019 21:04

#	Program:	/corina/corina34_cracker 3.40 0067  02.08.2006

@<TRIPOS>MOLECULE
ASD05872014
  38   39    0    0    0
SMALL
NO_CHARGES


@<TRIPOS>ATOM
   1 C1            -0.0168     1.3909     0.0097 C.ar    
   2 C2             0.0021    -0.0041     0.0020 C.ar    
   3 C3            -1.1845    -0.7121     0.0095 C.ar    
   4 C4            -2.3952    -0.0265     0.0248 C.ar    
   5 C5            -2.4171     1.3754     0.0325 C.ar    
   6 C6            -1.2170     2.0760     0.0306 C.ar    
   7 C7            -3.8128    -0.4423     0.0361 C.2     
   8 C8            -4.5353     0.7114     0.0492 C.2     
   9 O9            -3.7097     1.7643     0.0470 O.3     
  10 C10           -6.0401     0.7908     0.0644 C.3     
  11 O11            1.1546     2.0818     0.0022 O.3     
  12 C12            2.4750     4.1060     0.0005 C.3     
  13 C13            1.0667     3.5081     0.0107 C.3     
  14 C14           -4.3345    -1.8156     0.0333 C.2     
  15 O15           -4.5402    -2.3899     1.0849 O.2     
  16 O16           -4.5851    -2.4391    -1.1355 O.3     
  17 C17           -5.3206    -4.3337    -2.4772 C.3     
  18 C18           -5.0993    -3.7951    -1.0623 C.3     
  19 O19            1.1896    -0.6677    -0.0133 O.3     
  20 S20            1.7437    -0.9771     1.3700 S.o2    
  21 O21            3.1397    -1.3444     1.1901 O.co2   
  22 O22            1.5955     0.2341     2.1618 O.co2   
  23 O23            0.9541    -2.0770     1.9018 O.co2   
  24 H24           -1.1722    -1.7920     0.0033 H       
  25 H25           -1.2222     3.1560     0.0368 H       
  26 H26           -6.3928     0.8047     1.0957 H       
  27 H27           -6.3611     1.7014    -0.4416 H       
  28 H28           -6.4550    -0.0761    -0.4498 H       
  29 H29            2.4079     5.1939     0.0070 H       
  30 H30            3.0187     3.7702     0.8835 H       
  31 H31            3.0017     3.7798    -0.8963 H       
  32 H32            0.5230     3.8439    -0.8723 H       
  33 H33            0.5400     3.8343     0.9075 H       
  34 H34           -5.7065    -5.3515    -2.4222 H       
  35 H35           -6.0383    -3.7006    -2.9988 H       
  36 H36           -4.3745    -4.3325    -3.0185 H       
  37 H37           -4.3815    -4.4281    -0.5407 H       
  38 H38           -6.0454    -3.7962    -0.5210 H       
@<TRIPOS>BOND
   1    1    2 ar
   2    1   11 1
   3    1    6 ar
   4    2    3 ar
   5    2   19 1
   6    3    4 ar
   7    3   24 1
   8    4    5 ar
   9    4    7 1
  10    5    6 ar
  11    5    9 1
  12    6   25 1
  13    7    8 2
  14    7   14 1
  15    8    9 1
  16    8   10 1
  17   10   26 1
  18   10   27 1
  19   10   28 1
  20   11   13 1
  21   12   13 1
  22   12   29 1
  23   12   30 1
  24   12   31 1
  25   13   32 1
  26   13   33 1
  27   14   15 2
  28   14   16 1
  29   16   18 1
  30   17   18 1
  31   17   34 1
  32   17   35 1
  33   17   36 1
  34   18   37 1
  35   18   38 1
  36   19   20 1
  37   20   21 ar
  38   20   22 ar
  39   20   23 ar

#	End of record

