#	Name: ASD03082022
#	Creating user name:	WinNT
#	Creation time:	15. 06. 2019 20:27

#	Modifying user name:	WinNT
#	Modification time:	15. 06. 2019 20:27

#	Program:	/corina/corina34_cracker 3.40 0067  02.08.2006

@<TRIPOS>MOLECULE
ASD03082022
  49   51    0    0    0
SMALL
NO_CHARGES


@<TRIPOS>ATOM
   1 C1             0.2583     1.1358    -0.3491 C.3     
   2 N2             0.1046    -0.3183    -0.2078 N.3     
   3 C3             0.5874    -1.0238    -1.4025 C.3     
   4 C4             2.0892    -0.7690    -1.5700 C.3     
   5 N5             2.3195     0.6837    -1.5699 N.am    
   6 C6             1.7466     1.4791    -0.4734 C.3     
   7 S7             3.2009     1.4045    -2.7723 S.o2    
   8 C8            -1.2901    -0.6742     0.0859 C.3     
   9 C9            -2.1598    -0.3097    -1.0896 C.2     
  10 N10           -3.4632    -0.6527    -1.0954 N.am    
  11 O11           -1.6869     0.2921    -2.0303 O.2     
  12 C12           -4.2921    -0.2240    -2.1311 C.ar    
  13 C13           -4.0722     1.0130    -2.7294 C.ar    
  14 C14           -4.8884     1.4392    -3.7525 C.ar    
  15 C15           -5.9393     0.6278    -4.1905 C.ar    
  16 C16           -6.1572    -0.6144    -3.5871 C.ar    
  17 C17           -5.3338    -1.0365    -2.5680 C.ar    
  18 O18            4.0393     0.3942    -3.3161 O.2     
  19 C19            2.0722     1.8545    -4.0483 C.ar    
  20 O20            3.6996     2.6199    -2.2308 O.2     
  21 C21            1.8643     3.1870    -4.3489 C.ar    
  22 C22            0.9783     3.5405    -5.3498 C.ar    
  23 C23            0.2996     2.5615    -6.0508 C.ar    
  24 C24            0.5063     1.2279    -5.7523 C.ar    
  25 C25            1.3974     0.8726    -4.7542 C.ar    
  26 F26            1.6006    -0.4306    -4.4618 F       
  27 C27           -6.8160     1.0812    -5.2860 C.2     
  28 O28           -6.6256     2.1613    -5.8092 O.2     
  29 O29           -7.8284     0.2979    -5.7069 O.3     
  30 H30           -0.2684     1.4721    -1.2422 H       
  31 H31           -0.1575     1.6324     0.5276 H       
  32 H32            0.4103    -2.0933    -1.2897 H       
  33 H33            0.0562    -0.6573    -2.2809 H       
  34 H34            2.6326    -1.2259    -0.7428 H       
  35 H35            2.4295    -1.1937    -2.5144 H       
  36 H36            1.8604     2.5406    -0.6929 H       
  37 H37            2.2570     1.2383     0.4591 H       
  38 H38           -1.3602    -1.7460     0.2714 H       
  39 H39           -1.6257    -0.1300     0.9687 H       
  40 H40           -3.8245    -1.1977    -0.3790 H       
  41 H41           -3.2605     1.6394    -2.3903 H       
  42 H42           -4.7174     2.3996    -4.2162 H       
  43 H43           -6.9683    -1.2436    -3.9227 H       
  44 H44           -5.5013    -1.9961    -2.1017 H       
  45 H45            2.3938     3.9528    -3.8015 H       
  46 H46            0.8162     4.5823    -5.5837 H       
  47 H47           -0.3928     2.8388    -6.8320 H       
  48 H48           -0.0244     0.4631    -6.2999 H       
  49 H49           -8.3761     0.6378    -6.4278 H       
@<TRIPOS>BOND
   1    1    2 1
   2    1    6 1
   3    1   30 1
   4    1   31 1
   5    2    3 1
   6    2    8 1
   7    3    4 1
   8    3   32 1
   9    3   33 1
  10    4    5 1
  11    4   34 1
  12    4   35 1
  13    5    6 1
  14    5    7 am
  15    6   36 1
  16    6   37 1
  17    7   18 2
  18    7   19 1
  19    7   20 2
  20    8    9 1
  21    8   38 1
  22    8   39 1
  23    9   10 am
  24    9   11 2
  25   10   12 1
  26   10   40 1
  27   12   13 ar
  28   12   17 ar
  29   13   14 ar
  30   13   41 1
  31   14   15 ar
  32   14   42 1
  33   15   16 ar
  34   15   27 1
  35   16   17 ar
  36   16   43 1
  37   17   44 1
  38   19   21 ar
  39   19   25 ar
  40   21   22 ar
  41   21   45 1
  42   22   23 ar
  43   22   46 1
  44   23   24 ar
  45   23   47 1
  46   24   25 ar
  47   24   48 1
  48   25   26 1
  49   27   28 2
  50   27   29 1
  51   29   49 1

#	End of record

