#	Name: ASD01914263
#	Creating user name:	WinNT
#	Creation time:	15. 06. 2019 20:03

#	Modifying user name:	WinNT
#	Modification time:	15. 06. 2019 20:03

#	Program:	/corina/corina34_cracker 3.40 0067  02.08.2006

@<TRIPOS>MOLECULE
ASD01914263
  33   35    0    0    0
SMALL
NO_CHARGES


@<TRIPOS>ATOM
   1 C1            -0.0168     1.3881     0.0097 C.ar    
   2 C2             0.0021    -0.0041     0.0020 C.ar    
   3 C3             1.2179    -0.6659    -0.0131 C.ar    
   4 C4             2.3826     0.0855    -0.0202 C.ar    
   5 C5             2.2950     1.4761    -0.0119 C.ar    
   6 N6             1.1106     2.0794     0.0026 N.ar    
   7 N7            -1.2341     2.0587     0.0190 N.pl3   
   8 C8             3.4918     2.2625    -0.0191 C.1     
   9 C9             4.4729     2.9072    -0.0250 C.1     
  10 C10            5.7031     3.7155    -0.0323 C.3     
  11 C11            5.3372     5.2011    -0.0209 C.3     
  12 N12            7.1470     6.4028    -1.1039 N.2     
  13 N13            6.5616     6.0056    -0.0282 N.pl3   
  14 N14            7.1670     6.3919     1.0404 N.2     
  15 C15            8.2329     7.0968     0.6969 C.ar    
  16 C16            8.2192     7.1043    -0.7732 C.ar    
  17 C17            9.2422     7.7849    -1.4570 C.ar    
  18 C18           10.2164     8.4178    -0.7486 C.ar    
  19 C19           10.2302     8.4112     0.6482 C.ar    
  20 C20            9.2698     7.7718     1.3691 C.ar    
  21 F21           11.1959     9.0690    -1.4133 F       
  22 F22            9.3110     7.7838     2.7194 F       
  23 H23           -0.9226    -0.5621     0.0082 H       
  24 H24            1.2581    -1.7451    -0.0189 H       
  25 H25            3.3467    -0.4012    -0.0316 H       
  26 H26           -2.0643     1.5570     0.0202 H       
  27 H27           -1.2535     3.0285     0.0244 H       
  28 H28            6.2973     3.4809     0.8508 H       
  29 H29            6.2804     3.4904    -0.9291 H       
  30 H30            4.7430     5.4358    -0.9040 H       
  31 H31            4.7599     5.4262     0.8759 H       
  32 H32            9.2548     7.8049    -2.5368 H       
  33 H33           11.0233     8.9270     1.1692 H       
@<TRIPOS>BOND
   1    1    2 ar
   2    1    6 ar
   3    1    7 1
   4    2    3 ar
   5    2   23 1
   6    3    4 ar
   7    3   24 1
   8    4    5 ar
   9    4   25 1
  10    5    6 ar
  11    5    8 1
  12    7   26 1
  13    7   27 1
  14    8    9 3
  15    9   10 1
  16   10   11 1
  17   10   28 1
  18   10   29 1
  19   11   13 1
  20   11   30 1
  21   11   31 1
  22   12   13 1
  23   12   16 2
  24   13   14 1
  25   14   15 2
  26   15   16 ar
  27   15   20 ar
  28   16   17 ar
  29   17   18 ar
  30   17   32 1
  31   18   19 ar
  32   18   21 1
  33   19   20 ar
  34   19   33 1
  35   20   22 1

#	End of record

