#	Name: ASD06390038
#	Creating user name:	WinNT
#	Creation time:	15. 06. 2019 21:06

#	Modifying user name:	WinNT
#	Modification time:	15. 06. 2019 21:06

#	Program:	/corina/corina34_cracker 3.40 0067  02.08.2006

@<TRIPOS>MOLECULE
ASD06390038
  73   77    0    0    0
SMALL
NO_CHARGES


@<TRIPOS>ATOM
   1 N1            -0.0178     1.4648     0.0101 N.3     
   2 C2            -0.2418     0.5850    -1.1448 C.3     
   3 C3            -0.2970     0.7680     1.2728 C.3     
   4 C4            -3.7753    -3.5086     1.3295 C.3     
   5 C5             6.9558     0.0805     0.2737 C.3     
   6 C6            10.7807     0.2195     0.3482 C.3     
   7 Cl7           -0.6312     6.7416    -0.4034 Cl      
   8 C8             0.6862     5.6169    -0.2881 C.ar    
   9 C9             2.0078     6.0925    -0.2934 C.ar    
  10 C10            3.0738     5.2114    -0.2027 C.ar    
  11 C11            2.8238     3.8382    -0.1043 C.ar    
  12 C12            1.4858     3.3719    -0.1001 C.ar    
  13 C13            0.4265     4.2838    -0.1878 C.ar    
  14 N14            3.8205     2.9436    -0.0137 N.ar    
  15 C15            3.5548     1.6547     0.0783 C.ar    
  16 N16            2.3144     1.1750     0.0859 N.ar    
  17 C17            1.2626     1.9764     0.0006 C.ar    
  18 C18           -1.7197     0.1837    -1.1980 C.3     
  19 N19           -2.0952    -0.3903     0.1031 N.am    
  20 C20           -1.7772     0.3742     1.3187 C.3     
  21 C21           -2.7146    -1.5848     0.1794 C.2     
  22 C22           -3.0903    -2.1543     1.5231 C.3     
  23 O23           -2.9695    -2.2015    -0.8334 O.2     
  24 N24            4.6102     0.7651     0.1694 N.pl3   
  25 C25            5.9887     1.2609     0.1624 C.3     
  26 C26            8.3738     0.5905     0.2664 C.2     
  27 N27            9.4021    -0.2763     0.3552 N.am    
  28 C28            9.1413    -1.7141     0.4587 C.3     
  29 O29            8.5898     1.7808     0.1807 O.2     
  30 C30            2.2643     7.5472    -0.3973 C.ar    
  31 C31            2.9068     8.0633    -1.5071 C.ar    
  32 C32            3.1528     9.4329    -1.6136 C.ar    
  33 O33            3.7857     9.9168    -2.7146 O.3     
  34 C34            2.7626    10.3003    -0.6186 C.ar    
  35 C35            2.1072     9.8083     0.5229 C.ar    
  36 C36            1.8481     8.4204     0.6367 C.ar    
  37 C37            1.1936     7.9335     1.7769 C.ar    
  38 C38            0.8153     8.7982     2.7595 C.ar    
  39 C39            1.0692    10.1632     2.6491 C.ar    
  40 C40            1.6975    10.6719     1.5536 C.ar    
  41 H41            0.0252     1.1120    -2.0607 H       
  42 H42            0.3748    -0.3085    -1.0463 H       
  43 H43            0.3200    -0.1282     1.3379 H       
  44 H44           -0.0696     1.4277     2.1102 H       
  45 H45           -4.6736    -3.3785     0.7260 H       
  46 H46           -3.0932    -4.1917     0.8233 H       
  47 H47           -4.0471    -3.9205     2.3014 H       
  48 H48            6.7677    -0.4570     1.2031 H       
  49 H49            6.8071    -0.5918    -0.5713 H       
  50 H50           11.0998     0.4203     1.3709 H       
  51 H51           11.4345    -0.5313    -0.0957 H       
  52 H52           10.8334     1.1383    -0.2359 H       
  53 H53            4.0884     5.5814    -0.2079 H       
  54 H54           -0.5939     3.9303    -0.1799 H       
  55 H55           -2.3309     1.0633    -1.4003 H       
  56 H56           -1.8703    -0.5556    -1.9847 H       
  57 H57           -1.9652    -0.2416     2.1982 H       
  58 H58           -2.3939     1.2721     1.3583 H       
  59 H59           -3.7724    -1.4712     2.0293 H       
  60 H60           -2.1921    -2.2844     2.1266 H       
  61 H61            4.4375    -0.1869     0.2380 H       
  62 H62            6.1373     1.9332     1.0074 H       
  63 H63            6.1768     1.7984    -0.7670 H       
  64 H64           10.0876    -2.2515     0.5206 H       
  65 H65            8.5514    -1.9129     1.3534 H       
  66 H66            8.5908    -2.0478    -0.4210 H       
  67 H67            3.2217     7.4002    -2.2993 H       
  68 H68            3.1890    10.1658    -3.4337 H       
  69 H69            2.9602    11.3577    -0.7149 H       
  70 H70            0.9898     6.8775     1.8758 H       
  71 H71            0.3150     8.4193     3.6384 H       
  72 H72            0.7593    10.8281     3.4418 H       
  73 H73            1.8882    11.7325     1.4810 H       
@<TRIPOS>BOND
   1    1    2 1
   2    1   17 1
   3    1    3 1
   4    2   41 1
   5    2   42 1
   6    2   18 1
   7    3   43 1
   8    3   44 1
   9    3   20 1
  10    4   22 1
  11    4   45 1
  12    4   46 1
  13    4   47 1
  14    5   48 1
  15    5   49 1
  16    5   25 1
  17    5   26 1
  18    6   27 1
  19    6   50 1
  20    6   51 1
  21    6   52 1
  22    7    8 1
  23    8   13 ar
  24    8    9 ar
  25    9   30 1
  26    9   10 ar
  27   10   11 ar
  28   10   53 1
  29   11   14 ar
  30   11   12 ar
  31   12   17 ar
  32   12   13 ar
  33   13   54 1
  34   14   15 ar
  35   15   24 1
  36   15   16 ar
  37   16   17 ar
  38   18   55 1
  39   18   56 1
  40   18   19 1
  41   19   20 1
  42   19   21 am
  43   20   57 1
  44   20   58 1
  45   21   22 1
  46   21   23 2
  47   22   59 1
  48   22   60 1
  49   24   25 1
  50   24   61 1
  51   25   62 1
  52   25   63 1
  53   26   29 2
  54   26   27 am
  55   27   28 1
  56   28   64 1
  57   28   65 1
  58   28   66 1
  59   30   31 ar
  60   30   36 ar
  61   31   32 ar
  62   31   67 1
  63   32   33 1
  64   32   34 ar
  65   33   68 1
  66   34   69 1
  67   34   35 ar
  68   35   36 ar
  69   35   40 ar
  70   36   37 ar
  71   37   70 1
  72   37   38 ar
  73   38   39 ar
  74   38   71 1
  75   39   40 ar
  76   39   72 1
  77   40   73 1

#	End of record

