#	Name: ASD08150635
#	Creating user name:	WinNT
#	Creation time:	15. 06. 2019 21:16

#	Modifying user name:	WinNT
#	Modification time:	15. 06. 2019 21:16

#	Program:	/corina/corina34_cracker 3.40 0067  02.08.2006

@<TRIPOS>MOLECULE
ASD08150635
  65   71    0    0    0
SMALL
NO_CHARGES


@<TRIPOS>ATOM
   1 N1             0.0714     1.4676     0.2839 N.am    
   2 C2             0.2056     0.1486     0.5130 C.2     
   3 C3             1.4724    -0.4662     0.5609 C.2     
   4 C4             2.5974     0.2727     0.3736 C.2     
   5 C5             2.4548     1.7051     0.1242 C.ar    
   6 C6             3.5740     2.5328    -0.0793 C.ar    
   7 N7             3.4357     3.8142    -0.3018 N.ar    
   8 C8             2.2337     4.4085    -0.3493 C.ar    
   9 C9             1.0521     3.6509    -0.1558 C.ar    
  10 C10            1.1669     2.2625     0.0880 C.ar    
  11 C11           -0.1952     4.2808    -0.2064 C.ar    
  12 C12           -0.2620     5.6438    -0.4462 C.ar    
  13 C13            0.9115     6.3868    -0.6371 C.ar    
  14 C14            2.1318     5.7885    -0.5908 C.ar    
  15 O15           -0.7925    -0.5305     0.6834 O.2     
  16 C16           -1.5809     6.3198    -0.5015 C.ar    
  17 C17           -1.2066     2.0327     0.2398 C.ar    
  18 C18           -1.6845     2.7540     1.3283 C.ar    
  19 C19           -2.9438     3.3120     1.2873 C.ar    
  20 C20           -3.7392     3.1531     0.1523 C.ar    
  21 C21           -3.2574     2.4296    -0.9384 C.ar    
  22 C22           -1.9952     1.8775    -0.8943 C.ar    
  23 C23           -5.0941     3.7517     0.1057 C.ar    
  24 C24           -2.7643     5.5654    -0.4632 C.ar    
  25 N25           -3.9418     6.1351    -0.5105 N.ar    
  26 C26           -4.0766     7.4627    -0.5970 C.ar    
  27 C27           -2.9285     8.2934    -0.6399 C.ar    
  28 C28           -1.6543     7.7028    -0.5856 C.ar    
  29 C29           -6.0008     3.5061     1.1377 C.ar    
  30 C30           -5.3499     8.0563    -0.6472 C.ar    
  31 C31           -5.4623     9.4097    -0.7355 C.ar    
  32 C32           -4.3325    10.2244    -0.7775 C.ar    
  33 C33           -3.0825     9.6872    -0.7313 C.ar    
  34 C34           -7.2594     4.0616     1.0954 C.ar    
  35 C35           -7.6290     4.8721     0.0189 C.ar    
  36 C36           -6.7202     5.1179    -1.0137 C.ar    
  37 C37           -5.4605     4.5654    -0.9672 C.ar    
  38 C38           -8.9794     5.4683    -0.0277 C.2     
  39 N39           -9.3354     6.2500    -1.0663 N.am    
  40 O40           -9.7698     5.2539     0.8708 O.2     
  41 C41           -4.1142     2.2556    -2.1658 C.3     
  42 F42           -3.4997     1.3519    -3.0392 F       
  43 F43           -5.3693     1.7632    -1.7925 F       
  44 F44           -4.2690     3.4902    -2.8053 F       
  45 H45            1.5496    -1.5272     0.7474 H       
  46 H46            3.5736    -0.1880     0.4085 H       
  47 H47            4.5643     2.1028    -0.0509 H       
  48 H48           -1.0997     3.7092    -0.0602 H       
  49 H49            0.8455     7.4485    -0.8239 H       
  50 H50            3.0255     6.3763    -0.7398 H       
  51 H51           -1.0683     2.8767     2.2067 H       
  52 H52           -3.3148     3.8715     2.1333 H       
  53 H53           -1.6202     1.3203    -1.7400 H       
  54 H54           -2.7016     4.4895    -0.3935 H       
  55 H55           -0.7594     8.3066    -0.6158 H       
  56 H56           -5.7149     2.8796     1.9697 H       
  57 H57           -6.2364     7.4401    -0.6161 H       
  58 H58           -6.4433     9.8598    -0.7741 H       
  59 H59           -4.4501    11.2957    -0.8477 H       
  60 H60           -2.2142    10.3285    -0.7645 H       
  61 H61           -7.9612     3.8708     1.8939 H       
  62 H62           -7.0050     5.7442    -1.8462 H       
  63 H63           -4.7578     4.7554    -1.7650 H       
  64 H64           -8.7047     6.4211    -1.7831 H       
  65 H65          -10.2223     6.6416    -1.0969 H       
@<TRIPOS>BOND
   1    1    2 am
   2    1   10 1
   3    1   17 1
   4    2    3 1
   5    2   15 2
   6    3    4 2
   7    3   45 1
   8    4    5 1
   9    4   46 1
  10    5    6 ar
  11    5   10 ar
  12    6    7 ar
  13    6   47 1
  14    7    8 ar
  15    8    9 ar
  16    8   14 ar
  17    9   10 ar
  18    9   11 ar
  19   11   12 ar
  20   11   48 1
  21   12   13 ar
  22   12   16 1
  23   13   14 ar
  24   13   49 1
  25   14   50 1
  26   16   24 ar
  27   16   28 ar
  28   17   18 ar
  29   17   22 ar
  30   18   19 ar
  31   18   51 1
  32   19   20 ar
  33   19   52 1
  34   20   21 ar
  35   20   23 1
  36   21   22 ar
  37   21   41 1
  38   22   53 1
  39   23   29 ar
  40   23   37 ar
  41   24   25 ar
  42   24   54 1
  43   25   26 ar
  44   26   27 ar
  45   26   30 ar
  46   27   28 ar
  47   27   33 ar
  48   28   55 1
  49   29   34 ar
  50   29   56 1
  51   30   31 ar
  52   30   57 1
  53   31   32 ar
  54   31   58 1
  55   32   33 ar
  56   32   59 1
  57   33   60 1
  58   34   35 ar
  59   34   61 1
  60   35   36 ar
  61   35   38 1
  62   36   37 ar
  63   36   62 1
  64   37   63 1
  65   38   39 am
  66   38   40 2
  67   39   64 1
  68   39   65 1
  69   41   42 1
  70   41   43 1
  71   41   44 1

#	End of record

