#	Name: ASD00840997
#	Creating user name:	WinNT
#	Creation time:	15. 06. 2019 18:40

#	Modifying user name:	WinNT
#	Modification time:	15. 06. 2019 18:40

#	Program:	/corina/corina34_cracker 3.40 0067  02.08.2006

@<TRIPOS>MOLECULE
ASD00840997
  85   90    0    0    0
SMALL
NO_CHARGES


@<TRIPOS>ATOM
   1 N1            -0.0159     1.3183     0.0093 N.ar    
   2 C2             0.0021    -0.0041     0.0020 C.ar    
   3 C3             1.2069    -0.6955    -0.0132 C.ar    
   4 C4             2.3925     0.0180    -0.0207 C.ar    
   5 C5             2.3308     1.4049    -0.0127 C.ar    
   6 C6             1.0980     2.0259     0.0025 C.ar    
   7 C7             1.2224    -2.2024    -0.0209 C.3     
   8 C8             0.4763    -2.7343    -1.2260 C.2     
   9 O9             2.5880    -2.6958    -0.0096 O.3     
  10 C10            3.3814    -2.3221    -1.0311 C.2     
  11 N11            4.6601    -2.7453    -1.0809 N.am    
  12 O12            2.9448    -1.6033    -1.9081 O.2     
  13 C13            5.5439    -2.3489    -2.1877 C.3     
  14 C14            6.8407    -1.7853    -1.5972 C.3     
  15 N15            7.4151    -2.7628    -0.6632 N.3     
  16 C16            6.5187    -3.0023     0.4756 C.3     
  17 C17            5.2104    -3.6108    -0.0267 C.3     
  18 C18            8.7444    -2.3362    -0.2062 C.3     
  19 C19            9.2575    -3.3115     0.8568 C.3     
  20 C20           10.6671    -2.8969     1.2847 C.3     
  21 N21           11.5570    -2.9054     0.1166 N.3     
  22 C22           11.1109    -1.9419    -0.8978 C.3     
  23 C23            9.7146    -2.3281    -1.3909 C.3     
  24 H24           12.5123    -2.7279     0.3886 H       
  25 O25            0.7557    -2.5393    -2.3900 O.2     
  26 N26           -0.5539    -3.4626    -0.7638 N.am    
  27 C27            0.4501    -2.7460     1.1591 C.ar    
  28 C28           -0.5980    -3.4898     0.6311 C.ar    
  29 C29            0.6149    -2.6258     2.5206 C.ar    
  30 C30           -0.2710    -3.2513     3.3818 C.ar    
  31 C31           -1.3206    -3.9961     2.8679 C.ar    
  32 C32           -1.4864    -4.1171     1.5014 C.ar    
  33 Cl33          -0.0671    -3.1033     5.0994 Cl      
  34 F34           -2.1857    -4.6069     3.7068 F       
  35 C35           -1.0174    -5.8570    -2.0393 C.ar    
  36 C36            0.1602    -6.0221    -2.7534 C.ar    
  37 C37           -1.6942    -6.9621    -1.5601 C.ar    
  38 C38           -1.1983    -8.2317    -1.7914 C.ar    
  39 C39           -0.0245    -8.3990    -2.5031 C.ar    
  40 C40            0.6555    -7.2974    -2.9847 C.ar    
  41 H41            0.3608    -9.3918    -2.6825 H       
  42 O42            0.8275    -4.9367    -3.2262 O.3     
  43 C43            2.0331    -5.1822    -3.9529 C.3     
  44 C44            2.6382    -3.8505    -4.4017 C.3     
  45 O45           -1.1673    -0.6919     0.0099 O.3     
  46 C46           -3.5777    -0.8652     0.0330 C.3     
  47 C47           -2.3720     0.0766     0.0260 C.3     
  48 S48           -1.6459    -4.2388    -1.7372 S.o2    
  49 O49           -2.8262    -4.4047    -0.9636 O.2     
  50 O50           -1.6238    -3.5603    -2.9856 O.2     
  51 H51            3.3442    -0.4925    -0.0322 H       
  52 H52            3.2375     1.9916    -0.0178 H       
  53 H53            1.0444     3.1046     0.0084 H       
  54 H54            5.7701    -3.2183    -2.8050 H       
  55 H55            5.0542    -1.5850    -2.7917 H       
  56 H56            7.5509    -1.5888    -2.4004 H       
  57 H57            6.6257    -0.8579    -1.0664 H       
  58 H58            6.9953    -3.6884     1.1757 H       
  59 H59            6.3082    -2.0579     0.9776 H       
  60 H60            4.5004    -3.6838     0.7971 H       
  61 H61            5.4017    -4.6020    -0.4378 H       
  62 H62            8.6793    -1.3348     0.2193 H       
  63 H63            8.5937    -3.2900     1.7211 H       
  64 H64            9.2846    -4.3196     0.4430 H       
  65 H65           10.6370    -1.8942     1.7110 H       
  66 H66           11.0409    -3.5977     2.0312 H       
  67 H67           11.0788    -0.9437    -0.4613 H       
  68 H68           11.8071    -1.9491    -1.7365 H       
  69 H69            9.7488    -3.3206    -1.8400 H       
  70 H70            9.3773    -1.6039    -2.1324 H       
  71 H71            1.4345    -2.0447     2.9166 H       
  72 H72           -2.3067    -4.6987     1.1074 H       
  73 H73           -2.6111    -6.8340    -1.0040 H       
  74 H74           -1.7284    -9.0942    -1.4154 H       
  75 H75            1.5719    -7.4287    -3.5410 H       
  76 H76            2.7428    -5.7064    -3.3129 H       
  77 H77            1.8120    -5.7939    -4.8276 H       
  78 H78            1.9285    -3.3263    -5.0418 H       
  79 H79            2.8593    -3.2388    -3.5271 H       
  80 H80            3.5579    -4.0377    -4.9561 H       
  81 H81           -3.5390    -1.4986     0.9192 H       
  82 H82           -4.4966    -0.2790     0.0452 H       
  83 H83           -3.5566    -1.4891    -0.8606 H       
  84 H84           -2.3931     0.7004     0.9196 H       
  85 H85           -2.4108     0.7099    -0.8602 H       
@<TRIPOS>BOND
   1    1    2 ar
   2    1    6 ar
   3    2    3 ar
   4    2   45 1
   5    3    4 ar
   6    3    7 1
   7    4    5 ar
   8    4   51 1
   9    5    6 ar
  10    5   52 1
  11    6   53 1
  12    7    8 1
  13    7    9 1
  14    7   27 1
  15    8   25 2
  16    8   26 am
  17    9   10 1
  18   10   11 am
  19   10   12 2
  20   11   13 1
  21   11   17 1
  22   13   14 1
  23   13   54 1
  24   13   55 1
  25   14   15 1
  26   14   56 1
  27   14   57 1
  28   15   16 1
  29   15   18 1
  30   16   17 1
  31   16   58 1
  32   16   59 1
  33   17   60 1
  34   17   61 1
  35   18   19 1
  36   18   23 1
  37   18   62 1
  38   19   20 1
  39   19   63 1
  40   19   64 1
  41   20   21 1
  42   20   65 1
  43   20   66 1
  44   21   22 1
  45   21   24 1
  46   22   23 1
  47   22   67 1
  48   22   68 1
  49   23   69 1
  50   23   70 1
  51   26   48 am
  52   26   28 1
  53   27   28 ar
  54   27   29 ar
  55   28   32 ar
  56   29   30 ar
  57   29   71 1
  58   30   31 ar
  59   30   33 1
  60   31   32 ar
  61   31   34 1
  62   32   72 1
  63   35   36 ar
  64   35   37 ar
  65   35   48 1
  66   36   42 1
  67   36   40 ar
  68   37   38 ar
  69   37   73 1
  70   38   39 ar
  71   38   74 1
  72   39   40 ar
  73   39   41 1
  74   40   75 1
  75   42   43 1
  76   43   44 1
  77   43   76 1
  78   43   77 1
  79   44   78 1
  80   44   79 1
  81   44   80 1
  82   45   47 1
  83   46   47 1
  84   46   81 1
  85   46   82 1
  86   46   83 1
  87   47   84 1
  88   47   85 1
  89   48   49 2
  90   48   50 2

#	End of record

