#	Name: ASD01912958
#	Creating user name:	WinNT
#	Creation time:	15. 06. 2019 20:00

#	Modifying user name:	WinNT
#	Modification time:	15. 06. 2019 20:00

#	Program:	/corina/corina34_cracker 3.40 0067  02.08.2006

@<TRIPOS>MOLECULE
ASD01912958
  35   37    0    0    0
SMALL
NO_CHARGES


@<TRIPOS>ATOM
   1 C1            -0.0173     1.4278     0.0099 C.2     
   2 C2             0.0021    -0.0041     0.0020 C.1     
   3 C3             0.0180    -1.1779    -0.0044 C.1     
   4 C4             0.0374    -2.6098    -0.0123 C.ar    
   5 C5            -1.1616    -3.3287    -0.0047 C.ar    
   6 C6             1.2554    -3.2957    -0.0335 C.ar    
   7 C7             1.2660    -4.6747    -0.0414 C.ar    
   8 C8             0.0750    -5.3794    -0.0290 C.ar    
   9 C9            -1.1348    -4.7074    -0.0129 C.ar    
  10 N10            1.0328     2.1983     0.0040 N.2     
  11 C11            0.8394     3.5026     0.0122 C.2     
  12 C12           -0.4603     3.8733     0.0270 C.2     
  13 S13           -1.4651     2.4306     0.0214 S.3     
  14 C14            1.9606     4.5350     0.0043 C.3     
  15 C15            1.3648     5.8846    -0.4064 C.3     
  16 N16            0.1826     6.1733     0.4176 N.3     
  17 C17           -0.9438     5.3040     0.0410 C.3     
  18 C18           -1.5553     7.8032     0.9836 C.3     
  19 C19           -0.1918     7.5906     0.3229 C.3     
  20 H20           -2.1064    -2.8056     0.0078 H       
  21 H21            2.1856    -2.7471    -0.0439 H       
  22 H22            2.2061    -5.2060    -0.0578 H       
  23 H23            0.0896    -6.4593    -0.0360 H       
  24 H24           -2.0601    -5.2642    -0.0032 H       
  25 H25            2.3958     4.6131     1.0006 H       
  26 H26            2.7282     4.2390    -0.7108 H       
  27 H27            2.1081     6.6686    -0.2619 H       
  28 H28            1.0751     5.8489    -1.4566 H       
  29 H29           -1.3032     5.5790    -0.9506 H       
  30 H30           -1.7485     5.4114     0.7683 H       
  31 H31           -2.3039     7.1950     0.4758 H       
  32 H32           -1.5004     7.5112     2.0323 H       
  33 H33           -1.8331     8.8549     0.9133 H       
  34 H34            0.5568     8.1988     0.8307 H       
  35 H35           -0.2467     7.8826    -0.7258 H       
@<TRIPOS>BOND
   1    1    2 1
   2    1   10 2
   3    1   13 1
   4    2    3 3
   5    3    4 1
   6    4    5 ar
   7    4    6 ar
   8    5    9 ar
   9    5   20 1
  10    6    7 ar
  11    6   21 1
  12    7    8 ar
  13    7   22 1
  14    8    9 ar
  15    8   23 1
  16    9   24 1
  17   10   11 1
  18   11   12 2
  19   11   14 1
  20   12   13 1
  21   12   17 1
  22   14   15 1
  23   14   25 1
  24   14   26 1
  25   15   16 1
  26   15   27 1
  27   15   28 1
  28   16   17 1
  29   16   19 1
  30   17   29 1
  31   17   30 1
  32   18   19 1
  33   18   31 1
  34   18   32 1
  35   18   33 1
  36   19   34 1
  37   19   35 1

#	End of record

