#	Name: ASD01000154
#	Creating user name:	WinNT
#	Creation time:	15. 06. 2019 18:54

#	Modifying user name:	WinNT
#	Modification time:	15. 06. 2019 18:54

#	Program:	/corina/corina34_cracker 3.40 0067  02.08.2006

@<TRIPOS>MOLECULE
ASD01000154
  62   66    0    0    0
SMALL
NO_CHARGES


@<TRIPOS>ATOM
   1 C1            -0.1045     2.0688    -1.6977 C.ar    
   2 C2            -2.1400     0.1956    -0.2132 C.ar    
   3 C3             0.1936     0.8667    -0.8895 C.3     
   4 C4            -0.2490     4.2411    -3.4239 C.ar    
   5 C5            -1.3545     3.7532    -2.7780 C.ar    
   6 C6            -1.2768     2.6696    -1.8718 C.ar    
   7 C7             1.0453     2.5776    -2.3394 C.ar    
   8 C8             0.9808     3.6532    -3.1884 C.ar    
   9 C9            -2.9239    -0.6071     0.6503 C.ar    
  10 C10           -2.3664    -1.5539     1.4685 C.ar    
  11 C11           -0.9951    -1.7344     1.4532 C.ar    
  12 C12           -0.2357    -0.9381     0.6333 C.ar    
  13 C13           -0.8208     0.0513    -0.1849 C.ar    
  14 C14            0.9413    -0.0777    -1.7952 C.ar    
  15 C15            2.3229    -0.1198    -1.7590 C.ar    
  16 C16            3.0107    -0.9845    -2.5881 C.ar    
  17 C17            2.3138    -1.8116    -3.4575 C.ar    
  18 C18            0.9274    -1.7676    -3.4914 C.ar    
  19 C19            0.2443    -0.9045    -2.6568 C.ar    
  20 S20            1.3938     1.3833     0.3688 S.3     
  21 C21            0.4535     2.5715     1.3661 C.3     
  22 C22            1.3622     3.1632     2.4455 C.3     
  23 C23            0.5810     4.1503     3.2740 C.2     
  24 N24            1.8619     2.0856     3.3097 N.3     
  25 O25            0.3718     5.3943     2.8154 O.3     
  26 O26            0.1431     3.8219     4.3512 O.2     
  27 C27           -2.6231     2.4767    -1.2060 C.3     
  28 C28           -3.0530     1.0504    -1.0643 C.3     
  29 O29            2.9880    -2.6628    -4.2744 O.3     
  30 C30            4.3431    -2.6987    -4.1798 C.ar    
  31 C31            7.1019    -2.7719    -3.9870 C.ar    
  32 C32            6.3335    -3.6291    -3.2209 C.ar    
  33 C33            4.9558    -3.5946    -3.3152 C.ar    
  34 C34            5.1167    -1.8437    -4.9517 C.ar    
  35 C35            6.4940    -1.8823    -4.8535 C.ar    
  36 H36           -0.3365     5.0728    -4.1073 H       
  37 H37           -2.3148     4.2100    -2.9664 H       
  38 H38            2.0007     2.1080    -2.1570 H       
  39 H39            1.8729     4.0339    -3.6633 H       
  40 H40           -3.9949    -0.4684     0.6647 H       
  41 H41           -2.9895    -2.1514     2.1174 H       
  42 H42           -0.5315    -2.4867     2.0742 H       
  43 H43            0.8359    -1.0716     0.6142 H       
  44 H44            2.8648     0.5241    -1.0822 H       
  45 H45            4.0898    -1.0165    -2.5600 H       
  46 H46            0.3826    -2.4103    -4.1672 H       
  47 H47           -0.8350    -0.8728    -2.6799 H       
  48 H48            0.0827     3.3711     0.7248 H       
  49 H49           -0.3881     2.0642     1.8378 H       
  50 H50            2.2038     3.6705     1.9738 H       
  51 H51            1.1002     1.5997     3.7589 H       
  52 H52            2.4429     1.4451     2.7898 H       
  53 H53           -0.1348     5.9918     3.3824 H       
  54 H54           -2.5839     2.9250    -0.2132 H       
  55 H55           -3.3754     3.0070    -1.7898 H       
  56 H56           -3.1115     0.6077    -2.0587 H       
  57 H57           -4.0502     1.0331    -0.6245 H       
  58 H58            8.1789    -2.8003    -3.9115 H       
  59 H59            6.8108    -4.3230    -2.5449 H       
  60 H60            4.3561    -4.2640    -2.7164 H       
  61 H61            4.6423    -1.1488    -5.6289 H       
  62 H62            7.0964    -1.2139    -5.4508 H       
@<TRIPOS>BOND
   1    1    3 1
   2    1    7 ar
   3    1    6 ar
   4    2    9 ar
   5    2   13 ar
   6    2   28 1
   7    3   14 1
   8    3   20 1
   9    3   13 1
  10    4    5 ar
  11    4    8 ar
  12    4   36 1
  13    5    6 ar
  14    5   37 1
  15    6   27 1
  16    7    8 ar
  17    7   38 1
  18    8   39 1
  19    9   10 ar
  20    9   40 1
  21   10   11 ar
  22   10   41 1
  23   11   12 ar
  24   11   42 1
  25   12   13 ar
  26   12   43 1
  27   14   15 ar
  28   14   19 ar
  29   15   16 ar
  30   15   44 1
  31   16   17 ar
  32   16   45 1
  33   17   18 ar
  34   17   29 1
  35   18   19 ar
  36   18   46 1
  37   19   47 1
  38   20   21 1
  39   21   22 1
  40   21   48 1
  41   21   49 1
  42   22   23 1
  43   22   24 1
  44   22   50 1
  45   23   25 1
  46   23   26 2
  47   24   51 1
  48   24   52 1
  49   25   53 1
  50   27   28 1
  51   27   54 1
  52   27   55 1
  53   28   56 1
  54   28   57 1
  55   29   30 1
  56   30   34 ar
  57   30   33 ar
  58   31   32 ar
  59   31   35 ar
  60   31   58 1
  61   32   33 ar
  62   32   59 1
  63   33   60 1
  64   34   35 ar
  65   34   61 1
  66   35   62 1

#	End of record

