#	Name: ASD00170520
#	Creating user name:	WinNT
#	Creation time:	15. 06. 2019 18:32

#	Modifying user name:	WinNT
#	Modification time:	15. 06. 2019 18:32

#	Program:	/corina/corina34_cracker 3.40 0067  02.08.2006

@<TRIPOS>MOLECULE
ASD00170520
  53   56    0    0    0
SMALL
NO_CHARGES


@<TRIPOS>ATOM
   1 C1             5.3410   -13.2255    -1.4051 C.3     
   2 C2             4.7540   -11.8847    -1.8510 C.3     
   3 O3             3.8331   -11.4161    -0.8639 O.3     
   4 C4             3.2187   -10.2287    -1.1077 C.ar    
   5 C5             3.4921    -9.5318    -2.2757 C.ar    
   6 C6             2.8659    -8.3252    -2.5214 C.ar    
   7 C7             1.9675    -7.8118    -1.6042 C.ar    
   8 C8             1.2862    -6.4951    -1.8746 C.3     
   9 C9             0.0613    -6.7278    -2.7211 C.2     
  10 C10           -1.1325    -7.0641    -2.2168 C.2     
  11 S11           -2.3181    -7.2503    -3.4966 S.3     
  12 C12           -1.1834    -6.8699    -4.7098 C.2     
  13 N13           -1.4645    -6.8273    -6.0584 N.pl3   
  14 C14            0.0517    -6.6054    -4.1593 C.2     
  15 C15            1.2294    -6.2424    -4.9490 C.2     
  16 O16            1.9188    -7.1125    -5.4493 O.2     
  17 C17            1.5819    -4.8191    -5.1394 C.ar    
  18 C18            0.7367    -3.8174    -4.6582 C.ar    
  19 C19            1.0707    -2.4917    -4.8388 C.ar    
  20 C20            2.2421    -2.1531    -5.4960 C.ar    
  21 Cl21           2.6560    -0.4821    -5.7195 Cl      
  22 C22            3.0848    -3.1425    -5.9751 C.ar    
  23 C23            2.7640    -4.4716    -5.7959 C.ar    
  24 C24           -1.4133    -7.2527    -0.7783 C.ar    
  25 C25           -1.0628    -6.2616     0.1403 C.ar    
  26 C26           -1.3277    -6.4440     1.4818 C.ar    
  27 C27           -1.9395    -7.6061     1.9175 C.ar    
  28 C28           -2.2895    -8.5924     1.0124 C.ar    
  29 C29           -2.0355    -8.4203    -0.3326 C.ar    
  30 C30            1.6929    -8.5047    -0.4396 C.ar    
  31 C31            2.3126    -9.7143    -0.1917 C.ar    
  32 H32            5.8604   -13.0969    -0.4555 H       
  33 H33            4.5373   -13.9518    -1.2842 H       
  34 H34            6.0435   -13.5829    -2.1580 H       
  35 H35            5.5578   -11.1585    -1.9719 H       
  36 H36            4.2346   -12.0133    -2.8006 H       
  37 H37            4.1943    -9.9320    -2.9920 H       
  38 H38            3.0784    -7.7823    -3.4305 H       
  39 H39            0.9933    -6.0369    -0.9299 H       
  40 H40            1.9722    -5.8327    -2.4025 H       
  41 H41           -2.3754    -6.9503    -6.3681 H       
  42 H42           -0.7513    -6.6743    -6.6978 H       
  43 H43           -0.1770    -4.0802    -4.1460 H       
  44 H44            0.4176    -1.7159    -4.4674 H       
  45 H45            3.9970    -2.8725    -6.4865 H       
  46 H46            3.4241    -5.2422    -6.1660 H       
  47 H47           -0.5849    -5.3542    -0.1985 H       
  48 H48           -1.0568    -5.6783     2.1935 H       
  49 H49           -2.1443    -7.7441     2.9689 H       
  50 H50           -2.7664    -9.4972     1.3591 H       
  51 H51           -2.3135    -9.1888    -1.0386 H       
  52 H52            0.9906    -8.1018     0.2751 H       
  53 H53            2.0950   -10.2569     0.7164 H       
@<TRIPOS>BOND
   1    1    2 1
   2    1   32 1
   3    1   33 1
   4    1   34 1
   5    2    3 1
   6    2   35 1
   7    2   36 1
   8    3    4 1
   9    4   31 ar
  10    4    5 ar
  11    5    6 ar
  12    5   37 1
  13    6    7 ar
  14    6   38 1
  15    7    8 1
  16    7   30 ar
  17    8    9 1
  18    8   39 1
  19    8   40 1
  20    9   14 1
  21    9   10 2
  22   10   11 1
  23   10   24 1
  24   11   12 1
  25   12   13 1
  26   12   14 2
  27   13   41 1
  28   13   42 1
  29   14   15 1
  30   15   16 2
  31   15   17 1
  32   17   23 ar
  33   17   18 ar
  34   18   19 ar
  35   18   43 1
  36   19   20 ar
  37   19   44 1
  38   20   21 1
  39   20   22 ar
  40   22   23 ar
  41   22   45 1
  42   23   46 1
  43   24   29 ar
  44   24   25 ar
  45   25   26 ar
  46   25   47 1
  47   26   27 ar
  48   26   48 1
  49   27   28 ar
  50   27   49 1
  51   28   29 ar
  52   28   50 1
  53   29   51 1
  54   30   31 ar
  55   30   52 1
  56   31   53 1

#	End of record

