#	Name: ASD04590504
#	Creating user name:	WinNT
#	Creation time:	15. 06. 2019 20:50

#	Modifying user name:	WinNT
#	Modification time:	15. 06. 2019 20:50

#	Program:	/corina/corina34_cracker 3.40 0067  02.08.2006

@<TRIPOS>MOLECULE
ASD04590504
  71   76    0    0    0
SMALL
NO_CHARGES


@<TRIPOS>ATOM
   1 C1             0.2073     1.5836    -0.1404 C.ar    
   2 C2             0.2359     0.2202    -0.3956 C.ar    
   3 C3             2.5802     0.1672     0.1166 C.ar    
   4 C4             2.5453     1.5493     0.3735 C.ar    
   5 C5             1.3539     2.2478     0.2423 C.ar    
   6 N6             3.8551    -0.2462     0.3203 N.2     
   7 C7             4.5967     0.7734     0.6800 C.2     
   8 N8             3.8322     1.9082     0.7277 N.pl3   
   9 C9             6.0401     0.7077     0.9884 C.2     
  10 C10            6.8253    -0.4671     1.0457 C.2     
  11 C11            8.0931    -0.1020     1.3571 C.2     
  12 N12            8.1158     1.2500     1.4927 N.pl3   
  13 N13            6.8239     1.7346     1.2529 N.2     
  14 N14            6.3726    -1.7770     0.8210 N.am    
  15 C15            7.2564    -2.7918     0.7458 C.2     
  16 O16            8.4507    -2.5620     0.7771 O.2     
  17 C17            1.4081    -0.4900    -0.2704 C.ar    
  18 C18            6.7771    -4.1769     0.6259 C.2     
  19 C19            5.4629    -4.5982     0.6732 C.2     
  20 C20           -1.0267    -0.4889    -0.8127 C.3     
  21 N21           -1.1412    -0.4644    -2.2770 N.3     
  22 C22           -2.2264    -1.3438    -2.7355 C.3     
  23 C23            0.1324    -0.8346    -2.9113 C.3     
  24 C24           -0.0142    -0.7383    -4.4322 C.3     
  25 O25           -1.0935    -1.5755    -4.8560 O.3     
  26 C26           -2.3493    -1.2425    -4.2582 C.3     
  27 C27            5.4564    -5.9822     0.5195 C.2     
  28 N28            6.6913    -6.3985     0.3846 N.2     
  29 N29            7.5490    -5.2927     0.4402 N.pl3   
  30 C30            4.2299    -6.8578     0.5104 C.3     
  31 C31            3.4999    -6.6992    -0.8248 C.3     
  32 C32            4.6449    -8.3189     0.6944 C.3     
  33 C33            3.2995    -6.4442     1.6525 C.3     
  34 C34            8.9448    -5.3236     0.3343 C.ar    
  35 C35            9.6742    -6.2821     1.0258 C.ar    
  36 C36           11.0509    -6.3098     0.9192 C.ar    
  37 C37           11.7032    -5.3842     0.1255 C.ar    
  38 C38           10.9799    -4.4285    -0.5644 C.ar    
  39 C39            9.6025    -4.3993    -0.4670 C.ar    
  40 H40           -0.7185     2.1296    -0.2465 H       
  41 H41            1.3244     3.3093     0.4389 H       
  42 H42            4.1369     2.7979     0.9651 H       
  43 H43            8.9353    -0.7674     1.4764 H       
  44 H44            8.8929     1.7867     1.7141 H       
  45 H45            5.4238    -1.9517     0.7198 H       
  46 H46            1.4226    -1.5513    -0.4700 H       
  47 H47            4.5961    -3.9678     0.8060 H       
  48 H48           -0.9938    -1.5225    -0.4681 H       
  49 H49           -1.8880     0.0136    -0.3725 H       
  50 H50           -2.0031    -2.3734    -2.4561 H       
  51 H51           -3.1643    -1.0358    -2.2733 H       
  52 H52            0.9164    -0.1548    -2.5775 H       
  53 H53            0.3934    -1.8561    -2.6347 H       
  54 H54           -0.2223     0.2940    -4.7132 H       
  55 H55            0.9097    -1.0667    -4.9084 H       
  56 H56           -3.1143    -1.9354    -4.6085 H       
  57 H57           -2.6253    -0.2247    -4.5341 H       
  58 H58            4.1627    -6.9938    -1.6385 H       
  59 H59            2.6128    -7.3325    -0.8314 H       
  60 H60            3.2042    -5.6583    -0.9558 H       
  61 H61            5.1649    -8.4319     1.6456 H       
  62 H62            3.7578    -8.9522     0.6878 H       
  63 H63            5.3077    -8.6135    -0.1193 H       
  64 H64            3.0039    -5.4033     1.5215 H       
  65 H65            2.4124    -7.0775     1.6460 H       
  66 H66            3.8196    -6.5572     2.6038 H       
  67 H67            9.1654    -7.0047     1.6464 H       
  68 H68           11.6186    -7.0549     1.4567 H       
  69 H69           12.7799    -5.4075     0.0444 H       
  70 H70           11.4923    -3.7070    -1.1835 H       
  71 H71            9.0382    -3.6530    -1.0063 H       
@<TRIPOS>BOND
   1    1    2 ar
   2    1    5 ar
   3    1   40 1
   4    2   17 ar
   5    2   20 1
   6    3    4 ar
   7    3    6 1
   8    3   17 ar
   9    4    5 ar
  10    4    8 1
  11    5   41 1
  12    6    7 2
  13    7    8 1
  14    7    9 1
  15    8   42 1
  16    9   10 1
  17    9   13 2
  18   10   11 2
  19   10   14 1
  20   11   12 1
  21   11   43 1
  22   12   13 1
  23   12   44 1
  24   14   15 am
  25   14   45 1
  26   15   16 2
  27   15   18 1
  28   17   46 1
  29   18   19 2
  30   18   29 1
  31   19   27 1
  32   19   47 1
  33   20   21 1
  34   20   48 1
  35   20   49 1
  36   21   22 1
  37   21   23 1
  38   22   26 1
  39   22   50 1
  40   22   51 1
  41   23   24 1
  42   23   52 1
  43   23   53 1
  44   24   25 1
  45   24   54 1
  46   24   55 1
  47   25   26 1
  48   26   56 1
  49   26   57 1
  50   27   28 2
  51   27   30 1
  52   28   29 1
  53   29   34 1
  54   30   31 1
  55   30   32 1
  56   30   33 1
  57   31   58 1
  58   31   59 1
  59   31   60 1
  60   32   61 1
  61   32   62 1
  62   32   63 1
  63   33   64 1
  64   33   65 1
  65   33   66 1
  66   34   35 ar
  67   34   39 ar
  68   35   36 ar
  69   35   67 1
  70   36   37 ar
  71   36   68 1
  72   37   38 ar
  73   37   69 1
  74   38   39 ar
  75   38   70 1
  76   39   71 1

#	End of record

