#	Name: ASD03490088
#	Creating user name:	WinNT
#	Creation time:	15. 06. 2019 20:42

#	Modifying user name:	WinNT
#	Modification time:	15. 06. 2019 20:42

#	Program:	/corina/corina34_cracker 3.40 0067  02.08.2006

@<TRIPOS>MOLECULE
ASD03490088
  55   59    0    0    0
SMALL
NO_CHARGES


@<TRIPOS>ATOM
   1 C1             1.4260     0.9300     0.6483 C.ar    
   2 C2             1.3084    -0.4426     0.5339 C.ar    
   3 C3             2.4312    -1.2158     0.3050 C.ar    
   4 C4             3.6715    -0.6164     0.1902 C.ar    
   5 C5             3.7890     0.7562     0.3038 C.ar    
   6 C6             2.6664     1.5293     0.5340 C.ar    
   7 C7             2.3031    -2.7123     0.1813 C.3     
   8 N8             2.0721    -3.0693    -1.2248 N.3     
   9 C9             2.1778    -4.5219    -1.4237 C.3     
  10 C10            1.5617    -4.8936    -2.7756 C.3     
  11 C11            2.1560    -3.9768    -3.8375 C.2     
  12 C12            2.7954    -2.8446    -3.5304 C.2     
  13 C13            2.9992    -2.3497    -2.1102 C.3     
  14 C14            2.0841    -4.2451    -5.2659 C.2     
  15 C15            2.6970    -3.2674    -6.0257 C.2     
  16 S16            3.3570    -2.0243    -4.9753 S.3     
  17 C17            1.4672    -5.3796    -5.9781 C.2     
  18 N18            1.5170    -5.4286    -7.2928 N.2     
  19 C19            2.1177    -4.4678    -8.0070 C.2     
  20 N20            2.2936    -4.3002    -9.3123 N.2     
  21 N21            2.9390    -3.2128    -9.5394 N.2     
  22 N22            3.2226    -2.6104    -8.4346 N.2     
  23 N23            2.7020    -3.3973    -7.3981 N.pl3   
  24 N24            0.8414    -6.3851    -5.2701 N.pl3   
  25 C25            0.3340    -7.5677    -5.9703 C.3     
  26 C26           -0.3096    -8.5208    -4.9613 C.3     
  27 C27           -0.8395    -9.7558    -5.6926 C.3     
  28 O28           -1.4407   -10.6461    -4.7502 O.3     
  29 C29           -1.9706   -11.8383    -5.3331 C.3     
  30 C30           -2.5858   -12.7117    -4.2378 C.3     
  31 H31            0.5482     1.5345     0.8226 H       
  32 H32            0.3393    -0.9109     0.6236 H       
  33 H33            4.5488    -1.2206     0.0122 H       
  34 H34            4.7581     1.2245     0.2144 H       
  35 H35            2.7582     2.6017     0.6231 H       
  36 H36            3.2208    -3.1856     0.5303 H       
  37 H37            1.4641    -3.0564     0.7861 H       
  38 H38            3.2273    -4.8158    -1.4089 H       
  39 H39            1.6435    -5.0382    -0.6261 H       
  40 H40            1.7953    -5.9314    -3.0133 H       
  41 H41            0.4808    -4.7590    -2.7367 H       
  42 H42            2.7946    -1.2802    -2.0626 H       
  43 H43            4.0259    -2.5426    -1.7994 H       
  44 H44            0.7374    -6.3090    -4.3087 H       
  45 H45           -0.4091    -7.2626    -6.7071 H       
  46 H46            1.1581    -8.0735    -6.4734 H       
  47 H47            0.4335    -8.8258    -4.2245 H       
  48 H48           -1.1337    -8.0150    -4.4582 H       
  49 H49           -1.5826    -9.4508    -6.4294 H       
  50 H50           -0.0154   -10.2617    -6.1957 H       
  51 H51           -2.7371   -11.5765    -6.0624 H       
  52 H52           -1.1699   -12.3873    -5.8287 H       
  53 H53           -2.9900   -13.6211    -4.6824 H       
  54 H54           -1.8192   -12.9735    -3.5085 H       
  55 H55           -3.3864   -12.1626    -3.7422 H       
@<TRIPOS>BOND
   1    1    2 ar
   2    1    6 ar
   3    1   31 1
   4    2    3 ar
   5    2   32 1
   6    3    4 ar
   7    3    7 1
   8    4    5 ar
   9    4   33 1
  10    5    6 ar
  11    5   34 1
  12    6   35 1
  13    7    8 1
  14    7   36 1
  15    7   37 1
  16    8    9 1
  17    8   13 1
  18    9   10 1
  19    9   38 1
  20    9   39 1
  21   10   11 1
  22   10   40 1
  23   10   41 1
  24   11   14 1
  25   11   12 2
  26   12   13 1
  27   12   16 1
  28   13   42 1
  29   13   43 1
  30   14   15 2
  31   14   17 1
  32   15   16 1
  33   15   23 1
  34   17   18 2
  35   17   24 1
  36   18   19 1
  37   19   20 2
  38   19   23 1
  39   20   21 1
  40   21   22 2
  41   22   23 1
  42   24   25 1
  43   24   44 1
  44   25   26 1
  45   25   45 1
  46   25   46 1
  47   26   27 1
  48   26   47 1
  49   26   48 1
  50   27   28 1
  51   27   49 1
  52   27   50 1
  53   28   29 1
  54   29   30 1
  55   29   51 1
  56   29   52 1
  57   30   53 1
  58   30   54 1
  59   30   55 1

#	End of record

