#	Name: ASD09900005
#	Creating user name:	WinNT
#	Creation time:	15. 06. 2019 21:24

#	Modifying user name:	WinNT
#	Modification time:	15. 06. 2019 21:24

#	Program:	/corina/corina34_cracker 3.40 0067  02.08.2006

@<TRIPOS>MOLECULE
ASD09900005
  29   30    0    0    0
SMALL
NO_CHARGES


@<TRIPOS>ATOM
   1 C1            -0.0169     1.3968     0.0097 C.ar    
   2 C2             1.2353    -0.6845    -0.0134 C.ar    
   3 C3             2.4200     0.0468    -0.0215 C.ar    
   4 C4             2.3751     1.4227    -0.0130 C.ar    
   5 C5             1.1573     2.0915     0.0022 C.ar    
   6 C6            -1.0137    -0.9904     0.0072 C.2     
   7 C7            -0.4091    -2.2070    -0.0047 C.2     
   8 N8             0.9611    -2.0317    -0.0184 N.pl3   
   9 C9             0.0021    -0.0041     0.0020 C.ar    
  10 C10           -1.1027    -3.5038    -0.0043 C.2     
  11 N11           -0.3913    -4.6485    -0.0169 N.am    
  12 O12           -2.3184    -3.5433     0.0074 O.2     
  13 C13           -1.0823    -5.9403    -0.0165 C.3     
  14 C14           -1.4477    -6.3236    -1.4519 C.3     
  15 C15           -0.1641    -7.0096     0.5790 C.3     
  16 H16           -0.9586     1.9254     0.0261 H       
  17 H17            3.3715    -0.4639    -0.0340 H       
  18 H18            3.2954     1.9878    -0.0193 H       
  19 H19            1.1401     3.1714     0.0078 H       
  20 H20           -2.0782    -0.8083     0.0194 H       
  21 H21            1.6213    -2.7423    -0.0291 H       
  22 H22            0.5781    -4.6170    -0.0262 H       
  23 H23           -1.9901    -5.8666     0.5822 H       
  24 H24           -2.1018    -5.5619    -1.8761 H       
  25 H25           -0.5398    -6.3974    -2.0506 H       
  26 H26           -1.9618    -7.2848    -1.4516 H       
  27 H27            0.0962    -6.7364     1.6016 H       
  28 H28           -0.6782    -7.9707     0.5793 H       
  29 H29            0.7437    -7.0833    -0.0197 H       
@<TRIPOS>BOND
   1    1    9 ar
   2    1    5 ar
   3    1   16 1
   4    2    3 ar
   5    2    8 1
   6    2    9 ar
   7    3    4 ar
   8    3   17 1
   9    4    5 ar
  10    4   18 1
  11    5   19 1
  12    6    7 2
  13    6    9 1
  14    6   20 1
  15    7    8 1
  16    7   10 1
  17    8   21 1
  18   10   11 am
  19   10   12 2
  20   11   13 1
  21   11   22 1
  22   13   14 1
  23   13   15 1
  24   13   23 1
  25   14   24 1
  26   14   25 1
  27   14   26 1
  28   15   27 1
  29   15   28 1
  30   15   29 1

#	End of record

