#	Name: ASD08070020
#	Creating user name:	WinNT
#	Creation time:	15. 06. 2019 21:14

#	Modifying user name:	WinNT
#	Modification time:	15. 06. 2019 21:14

#	Program:	/corina/corina34_cracker 3.40 0067  02.08.2006

@<TRIPOS>MOLECULE
ASD08070020
  44   45    0    0    0
SMALL
NO_CHARGES


@<TRIPOS>ATOM
   1 C1            -0.5066     1.9101     1.4590 C.ar    
   2 C2            -0.4161     0.5206     1.4629 C.ar    
   3 C3            -1.5381    -0.2577     1.2811 C.ar    
   4 C4            -2.7776     0.3411     1.0906 C.ar    
   5 C5            -2.8719     1.7452     1.0863 C.ar    
   6 C6            -1.7293     2.5257     1.2776 C.ar    
   7 O7            -4.0172    -0.1505     0.8920 O.3     
   8 C8            -4.9146     0.8483     0.7583 C.2     
   9 C9            -4.2859     2.0473     0.8662 C.2     
  10 C10           -6.3551     0.6661     0.5309 C.2     
  11 N11           -6.8715    -0.5756     0.4414 N.am    
  12 O12           -7.0814     1.6361     0.4234 O.2     
  13 C13           -8.3074    -0.7572     0.2147 C.3     
  14 C14           -8.5999    -0.6860    -1.2854 C.3     
  15 C15           -8.7404    -2.1217     0.7545 C.3     
  16 C16           -8.3810    -2.2206     2.2384 C.3     
  17 C17           -8.2944     0.7227    -1.7983 C.3     
  18 C18           -7.7235    -1.6991    -2.0246 C.3     
  19 O19            0.6112     2.6629     1.6399 O.3     
  20 C20            1.8421     1.9617     1.8278 C.3     
  21 C21          -10.2526    -2.2810     0.5844 C.3     
  22 H22            0.5440     0.0481     1.6096 H       
  23 H23           -1.4543    -1.3344     1.2862 H       
  24 H24           -1.8002     3.6033     1.2745 H       
  25 H25           -4.7386     3.0258     0.8030 H       
  26 H26           -6.2924    -1.3490     0.5271 H       
  27 H27           -8.8589     0.0291     0.7301 H       
  28 H28           -9.6504    -0.9171    -1.4622 H       
  29 H29           -8.2277    -2.9099     0.2032 H       
  30 H30           -8.8937    -1.4324     2.7897 H       
  31 H31           -8.6895    -3.1927     2.6230 H       
  32 H32           -7.3037    -2.1071     2.3596 H       
  33 H33           -7.2223     0.9084    -1.7334 H       
  34 H34           -8.6159     0.8092    -2.8362 H       
  35 H35           -8.8273     1.4541    -1.1908 H       
  36 H36           -7.9411    -2.7027    -1.6592 H       
  37 H37           -7.9318    -1.6484    -3.0933 H       
  38 H38           -6.6730    -1.4680    -1.8478 H       
  39 H39            1.7686     1.3292     2.7125 H       
  40 H40            2.0444     1.3423     0.9541 H       
  41 H41            2.6522     2.6789     1.9602 H       
  42 H42          -10.4972    -2.3152    -0.4773 H       
  43 H43          -10.5765    -3.2058     1.0618 H       
  44 H44          -10.7614    -1.4355     1.0474 H       
@<TRIPOS>BOND
   1    1    2 ar
   2    1   19 1
   3    1    6 ar
   4    2    3 ar
   5    2   22 1
   6    3    4 ar
   7    3   23 1
   8    4    5 ar
   9    4    7 1
  10    5    6 ar
  11    5    9 1
  12    6   24 1
  13    7    8 1
  14    8    9 2
  15    8   10 1
  16    9   25 1
  17   10   11 am
  18   10   12 2
  19   11   13 1
  20   11   26 1
  21   13   14 1
  22   13   15 1
  23   13   27 1
  24   14   18 1
  25   14   17 1
  26   14   28 1
  27   15   16 1
  28   15   21 1
  29   15   29 1
  30   16   30 1
  31   16   31 1
  32   16   32 1
  33   17   33 1
  34   17   34 1
  35   17   35 1
  36   18   36 1
  37   18   37 1
  38   18   38 1
  39   19   20 1
  40   20   39 1
  41   20   40 1
  42   20   41 1
  43   21   42 1
  44   21   43 1
  45   21   44 1

#	End of record

