#	Name: ASD01028211
#	Creating user name:	WinNT
#	Creation time:	15. 06. 2019 18:56

#	Modifying user name:	WinNT
#	Modification time:	15. 06. 2019 18:56

#	Program:	/corina/corina34_cracker 3.40 0067  02.08.2006

@<TRIPOS>MOLECULE
ASD01028211
  47   51    0    0    0
SMALL
NO_CHARGES


@<TRIPOS>ATOM
   1 C1             3.5270    -4.7840    -0.3468 C.ar    
   2 C2             2.3570    -4.0884    -0.2338 C.ar    
   3 C3             4.7590    -4.1218    -0.3592 C.ar    
   4 C4             4.8227    -2.7670    -0.2589 C.ar    
   5 C5             3.6375    -2.0214    -0.1412 C.ar    
   6 C6             2.3868    -2.6883    -0.1282 C.ar    
   7 C7             3.6634    -0.6187    -0.0358 C.ar    
   8 C8             2.4726     0.0420     0.0753 C.ar    
   9 C9             1.2781    -0.6741     0.0818 C.ar    
  10 N10            1.2570    -1.9814    -0.0172 N.ar    
  11 S11            5.1895     0.2618    -0.0461 S.o     
  12 C12            5.5262     0.4741    -1.8159 C.3     
  13 C13            6.8216     1.2232    -1.9945 C.2     
  14 N14            8.0518     0.6749    -2.0986 N.pl3   
  15 C15            8.9245     1.7268    -2.2474 C.2     
  16 N16            8.1983     2.8325    -2.2265 N.2     
  17 N17            6.9570     2.5230    -2.0824 N.2     
  18 N18            8.5320    -0.6361    -2.0822 N.2     
  19 C19            9.8183    -0.8766    -2.2084 C.2     
  20 C20           10.7391     0.1815    -2.3623 C.2     
  21 C21           10.3017     1.4682    -2.3828 C.2     
  22 C22           10.3077    -2.2771    -2.1884 C.ar    
  23 C23            9.4078    -3.3302    -2.0366 C.ar    
  24 C24           11.6683    -2.5445    -2.3271 C.ar    
  25 C25           12.1179    -3.8492    -2.3082 C.ar    
  26 C26           11.2207    -4.8904    -2.1525 C.ar    
  27 C27            9.8685    -4.6310    -2.0192 C.ar    
  28 O28            3.4939    -6.1385    -0.4430 O.3     
  29 C29            4.7492    -6.8115    -0.5590 C.3     
  30 O30            4.8389     1.5157     0.5231 O.2     
  31 H31            1.4129    -4.6128    -0.2259 H       
  32 H32            5.6709    -4.6934    -0.4492 H       
  33 H33            5.7797    -2.2666    -0.2692 H       
  34 H34            2.4577     1.1187     0.1583 H       
  35 H35            0.3445    -0.1384     0.1702 H       
  36 H36            5.6036    -0.5039    -2.2909 H       
  37 H37            4.7142     1.0379    -2.2751 H       
  38 H38           11.7930    -0.0314    -2.4645 H       
  39 H39           11.0019     2.2819    -2.5006 H       
  40 H40            8.3519    -3.1288    -1.9325 H       
  41 H41           12.3696    -1.7323    -2.4495 H       
  42 H42           13.1721    -4.0576    -2.4156 H       
  43 H43           11.5768    -5.9099    -2.1390 H       
  44 H44            9.1725    -5.4478    -1.8975 H       
  45 H45            5.2648    -6.4667    -1.4553 H       
  46 H46            5.3599    -6.5949     0.3175 H       
  47 H47            4.5803    -7.8861    -0.6276 H       
@<TRIPOS>BOND
   1    1    2 ar
   2    1    3 ar
   3    1   28 1
   4    2    6 ar
   5    2   31 1
   6    3    4 ar
   7    3   32 1
   8    4    5 ar
   9    4   33 1
  10    5    6 ar
  11    5    7 ar
  12    6   10 ar
  13    7    8 ar
  14    7   11 1
  15    8    9 ar
  16    8   34 1
  17    9   10 ar
  18    9   35 1
  19   11   30 2
  20   11   12 1
  21   12   13 1
  22   12   36 1
  23   12   37 1
  24   13   14 1
  25   13   17 2
  26   14   15 1
  27   14   18 1
  28   15   16 2
  29   15   21 1
  30   16   17 1
  31   18   19 2
  32   19   20 1
  33   19   22 1
  34   20   21 2
  35   20   38 1
  36   21   39 1
  37   22   23 ar
  38   22   24 ar
  39   23   27 ar
  40   23   40 1
  41   24   25 ar
  42   24   41 1
  43   25   26 ar
  44   25   42 1
  45   26   27 ar
  46   26   43 1
  47   27   44 1
  48   28   29 1
  49   29   45 1
  50   29   46 1
  51   29   47 1

#	End of record

