#	Name: ASD01916741
#	Creating user name:	WinNT
#	Creation time:	15. 06. 2019 20:07

#	Modifying user name:	WinNT
#	Modification time:	15. 06. 2019 20:07

#	Program:	/corina/corina34_cracker 3.40 0067  02.08.2006

@<TRIPOS>MOLECULE
ASD01916741
  46   49    0    0    0
SMALL
NO_CHARGES


@<TRIPOS>ATOM
   1 C1            -0.0164     1.4061     0.0408 C.ar    
   2 C2             0.0022    -0.0063     0.0336 C.ar    
   3 C3            -1.1905    -0.7259     0.0643 C.ar    
   4 C4            -2.3842    -0.0623     0.0881 C.ar    
   5 C5            -2.4207     1.3374     0.0824 C.ar    
   6 C6            -1.2425     2.0736     0.0591 C.ar    
   7 N7             1.1601     2.0710     0.0404 N.2     
   8 C8             2.3208     1.4643     0.0066 C.2     
   9 N9             2.4232     0.1164    -0.1092 N.am    
  10 C10            1.3132    -0.6666    -0.0212 C.2     
  11 C11           -3.7244     2.0382     0.1014 C.2     
  12 O12            1.4044    -1.8798     0.0114 O.2     
  13 N13           -4.8704     1.3292     0.1240 N.am    
  14 C14            3.5351     2.3430     0.1553 C.3     
  15 C15            4.7954     1.6909    -0.3688 C.3     
  16 C16            4.8986     0.2351     0.0374 C.3     
  17 C17            3.6850    -0.5645    -0.3790 C.3     
  18 C18            6.1416    -0.3746    -0.6140 C.3     
  19 C19            5.0482     0.1539     1.5579 C.3     
  20 C20           -6.0974     1.9874     0.2556 C.ar    
  21 C21           -7.2286     1.5047    -0.3895 C.ar    
  22 N22           -8.3866     2.1226    -0.2682 N.ar    
  23 C23           -8.5196     3.2122     0.4623 C.ar    
  24 C24           -7.4393     3.7530     1.1351 C.ar    
  25 C25           -6.2042     3.1334     1.0402 C.ar    
  26 O26           -3.7614     3.2531     0.0966 O.2     
  27 H27           -1.1712    -1.8057     0.0690 H       
  28 H28           -3.3076    -0.6220     0.1111 H       
  29 H29           -1.2749     3.1531     0.0552 H       
  30 H30           -4.8441     0.3625     0.0491 H       
  31 H31            3.3664     3.2716    -0.3899 H       
  32 H32            3.6728     2.5772     1.2109 H       
  33 H33            4.8010     1.7558    -1.4568 H       
  34 H34            5.6600     2.2288     0.0203 H       
  35 H35            3.6913    -1.5139     0.1565 H       
  36 H36            3.7506    -0.7685    -1.4477 H       
  37 H37            7.0281     0.1646    -0.2803 H       
  38 H38            6.2247    -1.4230    -0.3275 H       
  39 H39            6.0573    -0.2998    -1.6981 H       
  40 H40            4.1789     0.6082     2.0333 H       
  41 H41            5.1233    -0.8906     1.8603 H       
  42 H42            5.9490     0.6862     1.8633 H       
  43 H43           -7.1587     0.6144    -0.9969 H       
  44 H44           -9.4857     3.6892     0.5360 H       
  45 H45           -7.5581     4.6460     1.7307 H       
  46 H46           -5.3434     3.5338     1.5550 H       
@<TRIPOS>BOND
   1    1    2 ar
   2    1    7 1
   3    1    6 ar
   4    2    3 ar
   5    2   10 1
   6    3    4 ar
   7    3   27 1
   8    4    5 ar
   9    4   28 1
  10    5    6 ar
  11    5   11 1
  12    6   29 1
  13    7    8 2
  14    8    9 1
  15    8   14 1
  16    9   10 am
  17    9   17 1
  18   10   12 2
  19   11   13 am
  20   11   26 2
  21   13   20 1
  22   13   30 1
  23   14   15 1
  24   14   31 1
  25   14   32 1
  26   15   16 1
  27   15   33 1
  28   15   34 1
  29   16   17 1
  30   16   18 1
  31   16   19 1
  32   17   35 1
  33   17   36 1
  34   18   37 1
  35   18   38 1
  36   18   39 1
  37   19   40 1
  38   19   41 1
  39   19   42 1
  40   20   21 ar
  41   20   25 ar
  42   21   22 ar
  43   21   43 1
  44   22   23 ar
  45   23   24 ar
  46   23   44 1
  47   24   25 ar
  48   24   45 1
  49   25   46 1

#	End of record

