#	Name: ASD03910086
#	Creating user name:	WinNT
#	Creation time:	15. 06. 2019 20:47

#	Modifying user name:	WinNT
#	Modification time:	15. 06. 2019 20:47

#	Program:	/corina/corina34_cracker 3.40 0067  02.08.2006

@<TRIPOS>MOLECULE
ASD03910086
  21   21    0    0    0
SMALL
NO_CHARGES


@<TRIPOS>ATOM
   1 C1            -0.0223     1.3946    -0.0059 C.ar    
   2 C2             0.0163     0.0012    -0.2043 C.ar    
   3 C3             1.2385    -0.6623    -0.2028 C.ar    
   4 C4             2.4181     0.0555    -0.0049 C.ar    
   5 C5             2.3726     1.4366     0.1917 C.ar    
   6 C6             1.1612     2.1003     0.1906 C.ar    
   7 C7            -1.3190     2.1088    -0.0123 C.2     
   8 O8            -2.0669     2.0008    -0.9627 O.2     
   9 O9            -1.6691     2.8784     1.0361 O.3     
  10 C10           -1.2376    -0.7536    -0.4130 C.2     
  11 O11           -2.3094    -0.1931    -0.3022 O.2     
  12 O12           -1.1914    -2.0629    -0.7261 O.3     
  13 C13            3.7193    -0.6482    -0.0028 C.2     
  14 O14            3.7600    -1.8499    -0.1734 O.2     
  15 O15            4.8589     0.0439     0.1882 O.3     
  16 H16            1.2742    -1.7311    -0.3541 H       
  17 H17            3.2881     1.9886     0.3450 H       
  18 H18            1.1323     3.1691     0.3429 H       
  19 H19           -2.5253     3.3250     0.9863 H       
  20 H20           -2.0373    -2.5141    -0.8530 H       
  21 H21            5.6846    -0.4594     0.1813 H       
@<TRIPOS>BOND
   1    1    2 ar
   2    1    6 ar
   3    1    7 1
   4    2    3 ar
   5    2   10 1
   6    3    4 ar
   7    3   16 1
   8    4    5 ar
   9    4   13 1
  10    5    6 ar
  11    5   17 1
  12    6   18 1
  13    7    8 2
  14    7    9 1
  15    9   19 1
  16   10   11 2
  17   10   12 1
  18   12   20 1
  19   13   14 2
  20   13   15 1
  21   15   21 1

#	End of record

