#	Name: ASD08830131
#	Creating user name:	WinNT
#	Creation time:	15. 06. 2019 21:19

#	Modifying user name:	WinNT
#	Modification time:	15. 06. 2019 21:19

#	Program:	/corina/corina34_cracker 3.40 0067  02.08.2006

@<TRIPOS>MOLECULE
ASD08830131
  34   35    0    0    0
SMALL
NO_CHARGES


@<TRIPOS>ATOM
   1 C1            -0.0179     1.4677     0.0101 C.ar    
   2 C2             0.0021    -0.0041     0.0020 C.2     
   3 C3            -1.2926    -0.7753     0.0102 C.3     
   4 C4            -0.9927    -2.2755    -0.0007 C.3     
   5 N5            -2.2547    -3.0273     0.0073 N.3     
   6 O6             1.0602    -0.5960    -0.0113 O.2     
   7 C7             1.1800     2.1840     0.0025 C.ar    
   8 C8            -0.0755     4.2472     0.0246 C.ar    
   9 C9            -1.2577     3.5328     0.0267 C.ar    
  10 C10           -1.2383     2.1531     0.0196 C.ar    
  11 C11           -2.0181    -4.4568    -0.2410 C.3     
  12 C12           -3.3490    -5.2097    -0.1649 C.3     
  13 O13           -4.2665    -4.6418    -1.1035 O.3     
  14 C14           -4.5205    -3.2506    -0.8906 C.3     
  15 C15           -3.2015    -2.4779    -0.9741 C.3     
  16 C16            1.1507     3.5770     0.0098 C.ar    
  17 C17            2.3746     4.3204     0.0026 C.1     
  18 N18            3.3455     4.9101    -0.0032 N.1     
  19 H19           -1.8592    -0.5245     0.9070 H       
  20 H20           -1.8762    -0.5150    -0.8728 H       
  21 H21           -0.4261    -2.5263    -0.8975 H       
  22 H22           -0.4091    -2.5358     0.8824 H       
  23 H23            2.1249     1.6611    -0.0086 H       
  24 H24           -0.0989     5.3269     0.0302 H       
  25 H25           -2.2021     4.0567     0.0386 H       
  26 H26           -2.1665     1.6009     0.0210 H       
  27 H27           -1.5824    -4.5869    -1.2316 H       
  28 H28           -1.3346    -4.8488     0.5123 H       
  29 H29           -3.1869    -6.2606    -0.4046 H       
  30 H30           -3.7584    -5.1242     0.8417 H       
  31 H31           -5.2057    -2.8846    -1.6552 H       
  32 H32           -4.9640    -3.1082     0.0948 H       
  33 H33           -3.3819    -1.4252    -0.7560 H       
  34 H34           -2.7847    -2.5763    -1.9764 H       
@<TRIPOS>BOND
   1    1    2 1
   2    1    7 ar
   3    1   10 ar
   4    2    3 1
   5    2    6 2
   6    3    4 1
   7    3   19 1
   8    3   20 1
   9    4    5 1
  10    4   21 1
  11    4   22 1
  12    5   11 1
  13    5   15 1
  14    7   16 ar
  15    7   23 1
  16    8    9 ar
  17    8   16 ar
  18    8   24 1
  19    9   10 ar
  20    9   25 1
  21   10   26 1
  22   11   12 1
  23   11   27 1
  24   11   28 1
  25   12   13 1
  26   12   29 1
  27   12   30 1
  28   13   14 1
  29   14   15 1
  30   14   31 1
  31   14   32 1
  32   15   33 1
  33   15   34 1
  34   16   17 1
  35   17   18 3

#	End of record

