#	Name: ASD03470020
#	Creating user name:	WinNT
#	Creation time:	15. 06. 2019 20:42

#	Modifying user name:	WinNT
#	Modification time:	15. 06. 2019 20:42

#	Program:	/corina/corina34_cracker 3.40 0067  02.08.2006

@<TRIPOS>MOLECULE
ASD03470020
  24   25    0    0    0
SMALL
NO_CHARGES


@<TRIPOS>ATOM
   1 C1            -0.0169     1.3950     0.0097 C.2     
   2 C2             0.0021    -0.0041     0.0020 C.2     
   3 C3             1.2950    -0.4031    -0.0125 C.2     
   4 N4             2.0680     0.7064    -0.0139 N.pl3   
   5 N5             1.2203     1.8216     0.0002 N.2     
   6 C6             3.4695     0.7355    -0.0271 C.ar    
   7 C7             4.1897    -0.4512    -0.0404 C.ar    
   8 C8             5.5706    -0.4193    -0.0533 C.ar    
   9 C9             6.2356     0.7929    -0.0527 C.ar    
  10 C10            5.5208     1.9768    -0.0395 C.ar    
  11 C11            4.1401     1.9514    -0.0327 C.ar    
  12 C12            3.3619     3.2419    -0.0251 C.3     
  13 N13            2.9156     3.5365     1.3431 N.3     
  14 H14           -0.9005     2.0160     0.0174 H       
  15 H15           -0.8625    -0.6512     0.0071 H       
  16 H16            1.6464    -1.4243    -0.0208 H       
  17 H17            3.6708    -1.3984    -0.0402 H       
  18 H18            6.1315    -1.3422    -0.0636 H       
  19 H19            7.3153     0.8153    -0.0621 H       
  20 H20            6.0430     2.9222    -0.0386 H       
  21 H21            3.9981     4.0519    -0.3821 H       
  22 H22            2.4942     3.1469    -0.6778 H       
  23 H23            2.3910     4.3979     1.3747 H       
  24 H24            2.3771     2.7712     1.7204 H       
@<TRIPOS>BOND
   1    1    2 1
   2    1    5 2
   3    1   14 1
   4    2    3 2
   5    2   15 1
   6    3    4 1
   7    3   16 1
   8    4    5 1
   9    4    6 1
  10    6    7 ar
  11    6   11 ar
  12    7    8 ar
  13    7   17 1
  14    8    9 ar
  15    8   18 1
  16    9   10 ar
  17    9   19 1
  18   10   11 ar
  19   10   20 1
  20   11   12 1
  21   12   13 1
  22   12   21 1
  23   12   22 1
  24   13   23 1
  25   13   24 1

#	End of record

