#	Name: ASD08150541
#	Creating user name:	WinNT
#	Creation time:	15. 06. 2019 21:16

#	Modifying user name:	WinNT
#	Modification time:	15. 06. 2019 21:16

#	Program:	/corina/corina34_cracker 3.40 0067  02.08.2006

@<TRIPOS>MOLECULE
ASD08150541
  40   43    0    0    0
SMALL
NO_CHARGES


@<TRIPOS>ATOM
   1 N1            -0.0155     1.2942     0.0092 N.2     
   2 C2             0.0021    -0.0041     0.0020 C.2     
   3 N3             1.1490    -0.7360    -0.0129 N.am    
   4 C4             2.3563    -0.1243    -0.0211 C.2     
   5 C5             2.3705     1.3450    -0.0133 C.ar    
   6 C6             3.5614     2.0711    -0.0203 C.ar    
   7 C7             3.5160     3.4496    -0.0121 C.ar    
   8 C8             2.2980     4.1155     0.0031 C.ar    
   9 C9             1.1114     3.4169     0.0107 C.ar    
  10 C10            1.1299     2.0209     0.0021 C.ar    
  11 O11            3.3904    -0.7665    -0.0340 O.2     
  12 C12           -1.3144    -0.7374     0.0112 C.3     
  13 Cl13          -2.6665     0.4552     0.0310 Cl      
  14 Cl14           5.0888     1.2462    -0.0387 Cl      
  15 C15            1.0568    -2.8410     1.1879 C.ar    
  16 C16            1.0798    -2.1331    -0.0193 C.ar    
  17 C17            1.0332    -2.8223    -1.2218 C.ar    
  18 C18            0.9643    -4.2025    -1.2261 C.ar    
  19 C19            0.9415    -4.9044    -0.0339 C.ar    
  20 C20            0.9869    -4.2316     1.1707 C.ar    
  21 C21            1.1123    -2.1137     2.4793 C.ar    
  22 C22            0.1849    -2.3950     3.4809 C.ar    
  23 C23            0.2416    -1.7154     4.6808 C.ar    
  24 C24            1.2166    -0.7567     4.8902 C.ar    
  25 C25            2.1394    -0.4731     3.8995 C.ar    
  26 C26            2.0957    -1.1505     2.6979 C.ar    
  27 H27            4.4358     4.0157    -0.0171 H       
  28 H28            2.2809     5.1954     0.0094 H       
  29 H29            0.1703     3.9466     0.0232 H       
  30 H30           -1.3907    -1.3583    -0.8814 H       
  31 H31           -1.3730    -1.3678     0.8984 H       
  32 H32            1.0503    -2.2800    -2.1556 H       
  33 H33            0.9278    -4.7358    -2.1645 H       
  34 H34            0.8876    -5.9830    -0.0458 H       
  35 H35            0.9685    -4.7833     2.0990 H       
  36 H36           -0.5769    -3.1430     3.3183 H       
  37 H37           -0.4767    -1.9323     5.4575 H       
  38 H38            1.2573    -0.2274     5.8307 H       
  39 H39            2.8980     0.2768     4.0682 H       
  40 H40            2.8196    -0.9317     1.9268 H       
@<TRIPOS>BOND
   1    1    2 2
   2    1   10 1
   3    2    3 1
   4    2   12 1
   5    3    4 am
   6    3   16 1
   7    4    5 1
   8    4   11 2
   9    5    6 ar
  10    5   10 ar
  11    6    7 ar
  12    6   14 1
  13    7    8 ar
  14    7   27 1
  15    8    9 ar
  16    8   28 1
  17    9   10 ar
  18    9   29 1
  19   12   13 1
  20   12   30 1
  21   12   31 1
  22   15   16 ar
  23   15   20 ar
  24   15   21 1
  25   16   17 ar
  26   17   18 ar
  27   17   32 1
  28   18   19 ar
  29   18   33 1
  30   19   20 ar
  31   19   34 1
  32   20   35 1
  33   21   22 ar
  34   21   26 ar
  35   22   23 ar
  36   22   36 1
  37   23   24 ar
  38   23   37 1
  39   24   25 ar
  40   24   38 1
  41   25   26 ar
  42   25   39 1
  43   26   40 1

#	End of record

