#	Name: ASD03091851
#	Creating user name:	WinNT
#	Creation time:	15. 06. 2019 20:31

#	Modifying user name:	WinNT
#	Modification time:	15. 06. 2019 20:31

#	Program:	/corina/corina34_cracker 3.40 0067  02.08.2006

@<TRIPOS>MOLECULE
ASD03091851
  49   53    0    0    0
SMALL
NO_CHARGES


@<TRIPOS>ATOM
   1 C1             0.0753     1.5114    -0.3538 C.3     
   2 C2             0.1479    -0.0077    -0.1304 C.3     
   3 C3             0.9569    -0.6379    -1.2677 C.3     
   4 C4             0.3623    -0.2232    -2.6166 C.3     
   5 C5             0.2752     1.3104    -2.6715 C.3     
   6 C6             1.6352     1.8784    -2.2044 C.3     
   7 C7             1.5031     2.0112    -0.6730 C.3     
   8 N8            -0.6808     1.7357    -1.6147 N.4     
   9 C9            -1.8912     0.9040    -1.6470 C.3     
  10 O10            2.3129    -0.1938    -1.1892 O.3     
  11 C11            4.6081    -0.7018    -1.5832 C.ar    
  12 C12            3.2618    -1.0129    -1.7144 C.ar    
  13 C13            2.8943    -2.1735    -2.3897 C.ar    
  14 C14            3.8923    -2.9788    -2.9082 C.ar    
  15 C15            5.2235    -2.6036    -2.7382 C.ar    
  16 N16            5.5348    -1.4896    -2.0884 N.ar    
  17 N17            9.4820    -5.6708    -4.7297 N.pl3   
  18 C18           10.5422    -4.9093    -4.3196 C.2     
  19 C19           10.1008    -3.8273    -3.6594 C.2     
  20 C20            8.6375    -3.9022    -3.6457 C.ar    
  21 C21            7.6312    -3.0900    -3.1233 C.ar    
  22 C22            6.3031    -3.4582    -3.2893 C.ar    
  23 C23            5.9814    -4.6346    -3.9752 C.ar    
  24 C24            6.9626    -5.4325    -4.4880 C.ar    
  25 C25            8.3016    -5.0832    -4.3338 C.ar    
  26 O26           -1.0207     3.1506    -1.7666 O.3     
  27 H27           -0.3625     2.0312     0.4983 H       
  28 H28            0.6358    -0.2136     0.8223 H       
  29 H29           -0.8593    -0.4243    -0.1244 H       
  30 H30            0.9259    -1.7236    -1.1762 H       
  31 H31            1.0019    -0.5817    -3.4231 H       
  32 H32           -0.6352    -0.6496    -2.7224 H       
  33 H33           -0.0037     1.6706    -3.6618 H       
  34 H34            2.4410     1.1893    -2.4573 H       
  35 H35            1.8139     2.8543    -2.6558 H       
  36 H36            1.6168     3.0524    -0.3713 H       
  37 H37            2.2440     1.3875    -0.1728 H       
  38 H38           -2.5539     1.1950    -0.8319 H       
  39 H39           -2.4030     1.0441    -2.5990 H       
  40 H40           -1.6148    -0.1443    -1.5339 H       
  41 H41            4.8991     0.1996    -1.0643 H       
  42 H42            1.8539    -2.4393    -2.5058 H       
  43 H43            3.6431    -3.8866    -3.4375 H       
  44 H44            9.5515    -6.4995    -5.2289 H       
  45 H45           11.5808    -5.1444    -4.5001 H       
  46 H46           10.7086    -3.0495    -3.2212 H       
  47 H47            7.8830    -2.1828    -2.5942 H       
  48 H48            4.9457    -4.9143    -4.0997 H       
  49 H49            6.6997    -6.3377    -5.0152 H       
@<TRIPOS>BOND
   1    1    2 1
   2    1    7 1
   3    1    8 1
   4    1   27 1
   5    2    3 1
   6    2   28 1
   7    2   29 1
   8    3    4 1
   9    3   10 1
  10    3   30 1
  11    4    5 1
  12    4   31 1
  13    4   32 1
  14    5    6 1
  15    5    8 1
  16    5   33 1
  17    6    7 1
  18    6   34 1
  19    6   35 1
  20    7   36 1
  21    7   37 1
  22    8    9 1
  23    8   26 1
  24    9   38 1
  25    9   39 1
  26    9   40 1
  27   10   12 1
  28   11   12 ar
  29   11   16 ar
  30   11   41 1
  31   12   13 ar
  32   13   14 ar
  33   13   42 1
  34   14   15 ar
  35   14   43 1
  36   15   16 ar
  37   15   22 1
  38   17   18 1
  39   17   25 1
  40   17   44 1
  41   18   19 2
  42   18   45 1
  43   19   20 1
  44   19   46 1
  45   20   21 ar
  46   20   25 ar
  47   21   22 ar
  48   21   47 1
  49   22   23 ar
  50   23   24 ar
  51   23   48 1
  52   24   25 ar
  53   24   49 1

#	End of record

