#	Name: ASD01913143
#	Creating user name:	WinNT
#	Creation time:	15. 06. 2019 20:01

#	Modifying user name:	WinNT
#	Modification time:	15. 06. 2019 20:01

#	Program:	/corina/corina34_cracker 3.40 0067  02.08.2006

@<TRIPOS>MOLECULE
ASD01913143
  45   47    0    0    0
SMALL
NO_CHARGES


@<TRIPOS>ATOM
   1 C1             0.0437     1.1624     0.0636 C.ar    
   2 C2             0.0316    -0.2219     0.0880 C.ar    
   3 C3            -1.1704    -0.9027     0.0978 C.ar    
   4 C4            -2.3656    -0.1989     0.0832 C.ar    
   5 C5            -2.3520     1.1879     0.0587 C.ar    
   6 C6            -1.1485     1.8663     0.0543 C.ar    
   7 O7            -3.5491    -0.8676     0.0923 O.3     
   8 C8            -4.7403    -0.0783     0.0762 C.3     
   9 C9            -5.9623    -0.9990     0.0897 C.3     
  10 C10           -7.2185    -0.1667     0.0727 C.2     
  11 N11           -8.4250    -0.7673     0.0807 N.am    
  12 C12           -9.6633     0.0260     0.0644 C.3     
  13 C13          -10.5623    -0.4978    -1.0606 C.3     
  14 N14          -10.7538    -1.9450    -0.8964 N.3     
  15 C15           -9.4814    -2.6684    -1.0208 C.3     
  16 C16           -8.5381    -2.2336     0.0997 C.3     
  17 O17           -7.1438     1.0437     0.0519 O.2     
  18 C18          -11.6975    -2.4315    -1.8051 C.ar    
  19 C19          -11.3062    -3.2970    -2.8180 C.ar    
  20 C20          -12.2411    -3.7771    -3.7149 C.ar    
  21 C21          -13.5657    -3.3972    -3.6056 C.ar    
  22 C22          -13.9605    -2.5342    -2.5978 C.ar    
  23 C23          -13.0308    -2.0547    -1.6935 C.ar    
  24 Cl24         -13.5255    -0.9729    -0.4291 Cl      
  25 Cl25         -15.6249    -2.0590    -2.4652 Cl      
  26 F26            1.2199     1.8269     0.0545 F       
  27 H27            0.9623    -0.7697     0.0990 H       
  28 H28           -1.1796    -1.9825     0.1165 H       
  29 H29           -3.2818     1.7372     0.0469 H       
  30 H30           -1.1376     2.9461     0.0356 H       
  31 H31           -4.7612     0.5660     0.9552 H       
  32 H32           -4.7575     0.5352    -0.8245 H       
  33 H33           -5.9414    -1.6433    -0.7892 H       
  34 H34           -5.9451    -1.6125     0.9905 H       
  35 H35          -10.1763    -0.0763     1.0207 H       
  36 H36           -9.4244     1.0741    -0.1158 H       
  37 H37          -11.5288     0.0042    -1.0175 H       
  38 H38          -10.0920    -0.3001    -2.0239 H       
  39 H39           -9.6640    -3.7406    -0.9488 H       
  40 H40           -9.0261    -2.4405    -1.9846 H       
  41 H41           -7.5559    -2.6803    -0.0546 H       
  42 H42           -8.9410    -2.5514     1.0614 H       
  43 H43          -10.2716    -3.5945    -2.9049 H       
  44 H44          -11.9364    -4.4500    -4.5028 H       
  45 H45          -14.2941    -3.7742    -4.3083 H       
@<TRIPOS>BOND
   1    1    2 ar
   2    1   26 1
   3    1    6 ar
   4    2    3 ar
   5    2   27 1
   6    3    4 ar
   7    3   28 1
   8    4    5 ar
   9    4    7 1
  10    5    6 ar
  11    5   29 1
  12    6   30 1
  13    7    8 1
  14    8    9 1
  15    8   31 1
  16    8   32 1
  17    9   10 1
  18    9   33 1
  19    9   34 1
  20   10   11 am
  21   10   17 2
  22   11   12 1
  23   11   16 1
  24   12   13 1
  25   12   35 1
  26   12   36 1
  27   13   14 1
  28   13   37 1
  29   13   38 1
  30   14   15 1
  31   14   18 1
  32   15   16 1
  33   15   39 1
  34   15   40 1
  35   16   41 1
  36   16   42 1
  37   18   19 ar
  38   18   23 ar
  39   19   20 ar
  40   19   43 1
  41   20   21 ar
  42   20   44 1
  43   21   22 ar
  44   21   45 1
  45   22   23 ar
  46   22   25 1
  47   23   24 1

#	End of record

