#	Name: ASD06660153
#	Creating user name:	WinNT
#	Creation time:	15. 06. 2019 21:08

#	Modifying user name:	WinNT
#	Modification time:	15. 06. 2019 21:08

#	Program:	/corina/corina34_cracker 3.40 0067  02.08.2006

@<TRIPOS>MOLECULE
ASD06660153
  70   73    0    0    0
SMALL
NO_CHARGES


@<TRIPOS>ATOM
   1 C1            -0.1006     1.3795     0.0412 C.2     
   2 C2            -0.0402    -0.1262     0.0254 C.3     
   3 C3            -0.7568    -0.6523    -1.2199 C.3     
   4 O4             0.9207     2.0251     0.0342 O.2     
   5 O5            -1.2889     2.0034     0.0574 O.3     
   6 C6            -0.8039    -2.1579    -1.1739 C.ar    
   7 C7            -1.8725    -2.7966    -0.5717 C.ar    
   8 C8            -1.9188    -4.1761    -0.5278 C.ar    
   9 C9            -0.8904    -4.9223    -1.0894 C.ar    
  10 C10            0.1814    -4.2775    -1.6936 C.ar    
  11 C11            0.2187    -2.8977    -1.7389 C.ar    
  12 N12           -0.9339    -6.3177    -1.0464 N.3     
  13 C13            0.2472    -6.9012    -1.6952 C.3     
  14 C14            0.0964    -8.4228    -1.7587 C.3     
  15 C15           -0.0544    -8.9756    -0.3387 C.3     
  16 C16           -1.2628    -8.3160     0.3316 C.3     
  17 C17           -1.0726    -6.7975     0.3345 C.3     
  18 C18           -0.2665   -10.4896    -0.3993 C.3     
  19 N19           -0.2913   -11.0340     0.9606 N.pl3   
  20 C20           -0.4728   -12.3976     1.1601 C.ar    
  21 C21           -0.6304   -13.2399     0.0639 C.ar    
  22 C22           -0.8101   -14.5945     0.2769 C.ar    
  23 C23           -0.8265   -15.0634     1.5841 C.ar    
  24 C24           -0.6641   -14.1712     2.6246 C.ar    
  25 N25           -0.4889   -12.8841     2.3914 N.ar    
  26 C26           -0.9849   -15.5403    -0.8832 C.3     
  27 N27            1.3593    -0.5587     0.0027 N.am    
  28 C28            2.0484    -0.6720     1.1554 C.2     
  29 C29            3.4608    -1.1084     1.1325 C.ar    
  30 C30            4.2128    -1.1111     2.3086 C.ar    
  31 C31            5.5299    -1.5199     2.2804 C.ar    
  32 C32            6.1061    -1.9262     1.0897 C.ar    
  33 C33            5.3666    -1.9255    -0.0794 C.ar    
  34 C34            4.0463    -1.5249    -0.0638 C.ar    
  35 O35            1.5087    -0.4154     2.2139 O.2     
  36 C36            3.5872    -0.6680     3.6060 C.3     
  37 H37           -0.5274    -0.5188     0.9180 H       
  38 H38           -1.7725    -0.2577    -1.2485 H       
  39 H39           -0.2176    -0.3328    -2.1116 H       
  40 H40           -1.2770     2.9703     0.0671 H       
  41 H41           -2.6715    -2.2159    -0.1349 H       
  42 H42           -2.7534    -4.6743    -0.0570 H       
  43 H43            0.9826    -4.8546    -2.1312 H       
  44 H44            1.0494    -2.3958    -2.2127 H       
  45 H45            0.3405    -6.5030    -2.7055 H       
  46 H46            1.1388    -6.6482    -1.1215 H       
  47 H47           -0.7874    -8.6768    -2.3439 H       
  48 H48            0.9802    -8.8569    -2.2262 H       
  49 H49            0.8457    -8.7556     0.2353 H       
  50 H50           -2.1680    -8.5684    -0.2207 H       
  51 H51           -1.3501    -8.6738     1.3575 H       
  52 H52           -0.1748    -6.5450     0.8986 H       
  53 H53           -1.9379    -6.3240     0.7983 H       
  54 H54           -1.2137   -10.7043    -0.8940 H       
  55 H55            0.5482   -10.9485    -0.9595 H       
  56 H56           -0.1811   -10.4429     1.7217 H       
  57 H57           -0.6128   -12.8412    -0.9397 H       
  58 H58           -0.9652   -16.1156     1.7844 H       
  59 H59           -0.6762   -14.5316     3.6426 H       
  60 H60           -0.0098   -15.9094    -1.2011 H       
  61 H61           -1.6089   -16.3799    -0.5767 H       
  62 H62           -1.4624   -15.0159    -1.7108 H       
  63 H63            1.7900    -0.7634    -0.8420 H       
  64 H64            6.1129    -1.5225     3.1896 H       
  65 H65            7.1379    -2.2450     1.0730 H       
  66 H66            5.8223    -2.2435    -1.0054 H       
  67 H67            3.4687    -1.5290    -0.9764 H       
  68 H68            3.0376    -1.4995     4.0470 H       
  69 H69            4.3681    -0.3432     4.2937 H       
  70 H70            2.9035     0.1594     3.4158 H       
@<TRIPOS>BOND
   1    1    2 1
   2    1    4 2
   3    1    5 1
   4    2    3 1
   5    2   27 1
   6    2   37 1
   7    3    6 1
   8    3   38 1
   9    3   39 1
  10    5   40 1
  11    6    7 ar
  12    6   11 ar
  13    7    8 ar
  14    7   41 1
  15    8    9 ar
  16    8   42 1
  17    9   10 ar
  18    9   12 1
  19   10   11 ar
  20   10   43 1
  21   11   44 1
  22   12   13 1
  23   12   17 1
  24   13   14 1
  25   13   45 1
  26   13   46 1
  27   14   15 1
  28   14   47 1
  29   14   48 1
  30   15   16 1
  31   15   18 1
  32   15   49 1
  33   16   17 1
  34   16   50 1
  35   16   51 1
  36   17   52 1
  37   17   53 1
  38   18   19 1
  39   18   54 1
  40   18   55 1
  41   19   20 1
  42   19   56 1
  43   20   21 ar
  44   20   25 ar
  45   21   22 ar
  46   21   57 1
  47   22   23 ar
  48   22   26 1
  49   23   24 ar
  50   23   58 1
  51   24   25 ar
  52   24   59 1
  53   26   60 1
  54   26   61 1
  55   26   62 1
  56   27   28 am
  57   27   63 1
  58   28   29 1
  59   28   35 2
  60   29   30 ar
  61   29   34 ar
  62   30   31 ar
  63   30   36 1
  64   31   32 ar
  65   31   64 1
  66   32   33 ar
  67   32   65 1
  68   33   34 ar
  69   33   66 1
  70   34   67 1
  71   36   68 1
  72   36   69 1
  73   36   70 1

#	End of record

