#	Name: ASD01880160
#	Creating user name:	WinNT
#	Creation time:	15. 06. 2019 19:40

#	Modifying user name:	WinNT
#	Modification time:	15. 06. 2019 19:40

#	Program:	/corina/corina34_cracker 3.40 0067  02.08.2006

@<TRIPOS>MOLECULE
ASD01880160
  69   72    0    0    0
SMALL
NO_CHARGES


@<TRIPOS>ATOM
   1 C1            -0.0167     1.3778     0.0096 C.ar    
   2 C2             0.0021    -0.0041     0.0020 C.ar    
   3 C3            -1.1877    -0.7281     0.0090 C.ar    
   4 C4            -2.3911    -0.0828     0.0239 C.ar    
   5 C5            -2.4310     1.3131     0.0322 C.ar    
   6 C6            -1.2336     2.0512     0.0307 C.ar    
   7 O7             1.1916    -0.6621    -0.0128 O.3     
   8 C8             1.1429    -2.0902    -0.0200 C.3     
   9 C9             2.5671    -2.6490    -0.0366 C.3     
  10 C10            2.5150    -4.1780    -0.0443 C.3     
  11 C11            3.9393    -4.7368    -0.0608 C.3     
  12 O12            3.8906    -6.1649    -0.0680 O.3     
  13 C13            5.0791    -6.8224    -0.0829 C.ar    
  14 C14            5.1026    -8.2110    -0.0906 C.ar    
  15 C15            6.3068    -8.8815    -0.1061 C.ar    
  16 C16            7.5033    -8.1633    -0.1141 C.ar    
  17 C17            7.4758    -6.7681    -0.1063 C.ar    
  18 C18            6.2678    -6.1043    -0.0961 C.ar    
  19 C19            8.7977    -8.8794    -0.1302 C.2     
  20 N20            8.9702   -10.1847    -0.1389 N.2     
  21 N21           10.2216   -10.4725    -0.1531 N.2     
  22 N22           10.9304    -9.3960    -0.1545 N.2     
  23 N23           10.0311    -8.3154    -0.1448 N.pl3   
  24 C24            1.2763     2.1520     0.0014 C.3     
  25 C25            1.7000     2.4217    -1.4438 C.3     
  26 C26            3.0127     3.2077    -1.4521 C.3     
  27 C27           -3.5149     2.2995     0.0476 C.2     
  28 C28           -2.9415     3.5127     0.0489 C.2     
  29 N29           -1.5779     3.3844     0.0397 N.pl3   
  30 C30           -4.9931     2.0067     0.0591 C.3     
  31 C31           -5.4561     1.7761     1.4990 C.3     
  32 C32           -5.1780     3.0296     2.3311 C.3     
  33 C33           -6.9569     1.4789     1.5108 C.3     
  34 C34           -4.6965     0.5893     2.0951 C.3     
  35 H35           -1.1584    -1.8077     0.0022 H       
  36 H36           -3.3098    -0.6506     0.0289 H       
  37 H37            0.6255    -2.4406     0.8730 H       
  38 H38            0.6086    -2.4311    -0.9068 H       
  39 H39            3.0846    -2.2985    -0.9297 H       
  40 H40            3.1015    -2.3081     0.8502 H       
  41 H41            1.9976    -4.5285     0.8488 H       
  42 H42            1.9807    -4.5189    -0.9311 H       
  43 H43            4.4567    -4.3864    -0.9539 H       
  44 H44            4.4736    -4.3959     0.8259 H       
  45 H45            4.1762    -8.7661    -0.0840 H       
  46 H46            6.3243    -9.9613    -0.1117 H       
  47 H47            8.3999    -6.2091    -0.1125 H       
  48 H48            6.2458    -5.0246    -0.0905 H       
  49 H49           10.2465    -7.3696    -0.1437 H       
  50 H50            1.1358     3.0994     0.5217 H       
  51 H51            2.0500     1.5723     0.5048 H       
  52 H52            1.8406     1.4743    -1.9640 H       
  53 H53            0.9263     3.0014    -1.9471 H       
  54 H54            3.3146     3.3998    -2.4816 H       
  55 H55            2.8722     4.1551    -0.9318 H       
  56 H56            3.7865     2.6280    -0.9487 H       
  57 H57           -3.4760     4.4511     0.0589 H       
  58 H58           -0.9486     4.1226     0.0393 H       
  59 H59           -5.5343     2.8522    -0.3656 H       
  60 H60           -5.1913     1.1137    -0.5337 H       
  61 H61           -5.7191     3.8751     1.9064 H       
  62 H62           -5.5078     2.8653     3.3569 H       
  63 H63           -4.1088     3.2413     2.3228 H       
  64 H64           -7.1551     0.5859     0.9180 H       
  65 H65           -7.2868     1.3146     2.5366 H       
  66 H66           -7.4981     2.3244     1.0861 H       
  67 H67           -3.6273     0.8011     2.0868 H       
  68 H68           -5.0263     0.4250     3.1209 H       
  69 H69           -4.8946    -0.3037     1.5023 H       
@<TRIPOS>BOND
   1    1    2 ar
   2    1   24 1
   3    1    6 ar
   4    2    3 ar
   5    2    7 1
   6    3    4 ar
   7    3   35 1
   8    4    5 ar
   9    4   36 1
  10    5    6 ar
  11    5   27 1
  12    6   29 1
  13    7    8 1
  14    8    9 1
  15    8   37 1
  16    8   38 1
  17    9   10 1
  18    9   39 1
  19    9   40 1
  20   10   11 1
  21   10   41 1
  22   10   42 1
  23   11   12 1
  24   11   43 1
  25   11   44 1
  26   12   13 1
  27   13   14 ar
  28   13   18 ar
  29   14   15 ar
  30   14   45 1
  31   15   16 ar
  32   15   46 1
  33   16   17 ar
  34   16   19 1
  35   17   18 ar
  36   17   47 1
  37   18   48 1
  38   19   20 2
  39   19   23 1
  40   20   21 1
  41   21   22 2
  42   22   23 1
  43   23   49 1
  44   24   25 1
  45   24   50 1
  46   24   51 1
  47   25   26 1
  48   25   52 1
  49   25   53 1
  50   26   54 1
  51   26   55 1
  52   26   56 1
  53   27   28 2
  54   27   30 1
  55   28   29 1
  56   28   57 1
  57   29   58 1
  58   30   31 1
  59   30   59 1
  60   30   60 1
  61   31   32 1
  62   31   33 1
  63   31   34 1
  64   32   61 1
  65   32   62 1
  66   32   63 1
  67   33   64 1
  68   33   65 1
  69   33   66 1
  70   34   67 1
  71   34   68 1
  72   34   69 1

#	End of record

