#	Name: ASD01915477
#	Creating user name:	WinNT
#	Creation time:	15. 06. 2019 20:05

#	Modifying user name:	WinNT
#	Modification time:	15. 06. 2019 20:05

#	Program:	/corina/corina34_cracker 3.40 0067  02.08.2006

@<TRIPOS>MOLECULE
ASD01915477
  46   49    0    0    0
SMALL
NO_CHARGES


@<TRIPOS>ATOM
   1 C1            -0.0167     1.3780     0.0096 C.ar    
   2 C2             0.0021    -0.0041     0.0020 C.ar    
   3 C3             1.2080    -0.6794    -0.0131 C.ar    
   4 C4             2.3969     0.0266    -0.0202 C.ar    
   5 C5             2.3806     1.4083    -0.0122 C.ar    
   6 C6             1.1730     2.0859     0.0021 C.ar    
   7 C7             3.7109    -0.7111    -0.0362 C.3     
   8 O8             4.1138    -0.9370    -1.3885 O.3     
   9 C9             5.2835    -1.5937    -1.5803 C.ar    
  10 C10            5.7235    -1.8404    -2.8769 C.ar    
  11 N11            5.9898    -1.9843    -0.5297 N.ar    
  12 C12            7.1312    -2.6247    -0.6645 C.ar    
  13 C13            7.6319    -2.9133    -1.9365 C.ar    
  14 C14            6.9166    -2.5110    -3.0676 C.ar    
  15 C15            7.9198    -3.0575     0.5445 C.3     
  16 C16            8.6284    -4.3790     0.2577 C.3     
  17 N17            9.3880    -4.3080    -0.9877 N.am    
  18 C18            8.9128    -3.6354    -2.0556 C.2     
  19 O19            9.5315    -3.6244    -3.1022 O.2     
  20 F20            1.1559     3.4368     0.0095 F       
  21 C21           10.6878    -4.9778    -1.0781 C.3     
  22 C22           10.4893    -6.4112    -1.5751 C.3     
  23 C23           11.8065    -7.1655    -1.8218 C.3     
  24 C24           11.1228    -8.3998    -1.2103 C.3     
  25 C25           10.2134    -7.4211    -0.4487 C.3     
  26 H26           -0.9591     1.9054     0.0169 H       
  27 H27           -0.9259    -0.5565     0.0083 H       
  28 H28            1.2217    -1.7592    -0.0191 H       
  29 H29            3.3093     1.9595    -0.0170 H       
  30 H30            4.4681    -0.1157     0.4739 H       
  31 H31            3.5967    -1.6678     0.4735 H       
  32 H32            5.1395    -1.5121    -3.7240 H       
  33 H33            7.2833    -2.7216    -4.0614 H       
  34 H34            8.6602    -2.2947     0.7858 H       
  35 H35            7.2446    -3.1850     1.3906 H       
  36 H36            9.3081    -4.6061     1.0789 H       
  37 H37            7.8860    -5.1732     0.1790 H       
  38 H38           11.3276    -4.4368    -1.7752 H       
  39 H39           11.1563    -4.9960    -0.0941 H       
  40 H40            9.7859    -6.4778    -2.4051 H       
  41 H41           12.0525    -7.2808    -2.8774 H       
  42 H42           12.6417    -6.7909    -1.2300 H       
  43 H43           10.5920    -9.0113    -1.9399 H       
  44 H44           11.7755    -8.9840    -0.5617 H       
  45 H45           10.6130    -7.1164     0.5186 H       
  46 H46            9.1733    -7.7427    -0.3957 H       
@<TRIPOS>BOND
   1    1    2 ar
   2    1    6 ar
   3    1   26 1
   4    2    3 ar
   5    2   27 1
   6    3    4 ar
   7    3   28 1
   8    4    5 ar
   9    4    7 1
  10    5    6 ar
  11    5   29 1
  12    6   20 1
  13    7    8 1
  14    7   30 1
  15    7   31 1
  16    8    9 1
  17    9   10 ar
  18    9   11 ar
  19   10   14 ar
  20   10   32 1
  21   11   12 ar
  22   12   13 ar
  23   12   15 1
  24   13   14 ar
  25   13   18 1
  26   14   33 1
  27   15   16 1
  28   15   34 1
  29   15   35 1
  30   16   17 1
  31   16   36 1
  32   16   37 1
  33   17   18 am
  34   17   21 1
  35   18   19 2
  36   21   22 1
  37   21   38 1
  38   21   39 1
  39   22   23 1
  40   22   25 1
  41   22   40 1
  42   23   24 1
  43   23   41 1
  44   23   42 1
  45   24   25 1
  46   24   43 1
  47   24   44 1
  48   25   45 1
  49   25   46 1

#	End of record

