#	Name: ASD09740403
#	Creating user name:	WinNT
#	Creation time:	15. 06. 2019 21:23

#	Modifying user name:	WinNT
#	Modification time:	15. 06. 2019 21:23

#	Program:	/corina/corina34_cracker 3.40 0067  02.08.2006

@<TRIPOS>MOLECULE
ASD09740403
  67   71    0    0    0
SMALL
NO_CHARGES


@<TRIPOS>ATOM
   1 N1            -1.1519     0.6762    -0.3597 N.2     
   2 C2            -1.0225    -0.5943    -0.0694 C.2     
   3 C3            -0.1816     1.4706    -0.0033 C.2     
   4 S4             1.0711     0.5310     0.8035 S.3     
   5 C5             0.1166    -0.9327     0.5733 C.2     
   6 C6            -0.1389     2.9285    -0.2396 C.ar    
   7 C7            -1.1952     3.5593    -0.8918 C.ar    
   8 C8             0.9596     3.6758     0.1968 C.ar    
   9 C9             1.0045     5.0356    -0.0205 C.ar    
  10 C10           -0.0402     5.6740    -0.6741 C.ar    
  11 C11           -1.1494     4.9353    -1.1120 C.ar    
  12 O12            0.0090     7.0132    -0.8849 O.3     
  13 C13            1.2165     7.6837    -0.5185 C.3     
  14 C14            1.3606     8.9630    -1.3453 C.3     
  15 C15            1.1710     8.0401     0.9687 C.3     
  16 C16           -2.2288     5.5914    -1.7867 C.1     
  17 N17           -3.0851     6.1118    -2.3219 N.1     
  18 C18            0.4959    -2.2933     1.0083 C.ar    
  19 C19            1.7585    -2.8034     0.6904 C.ar    
  20 C20            2.1065    -4.0737     1.0998 C.ar    
  21 C21            1.2045    -4.8389     1.8234 C.ar    
  22 C22           -0.0450    -4.3397     2.1393 C.ar    
  23 C23           -0.4028    -3.0679     1.7415 C.ar    
  24 C24            2.9042    -2.1790    -0.0765 C.3     
  25 C25            4.1411    -3.0298     0.2825 C.3     
  26 C26            3.5119    -4.3940     0.6366 C.3     
  27 N27            3.4729    -5.2580    -0.5459 N.am    
  28 S28            4.3432    -6.6666    -0.5711 S.o2    
  29 C29            3.6254    -7.6662     0.7616 C.3     
  30 C30            4.2609    -9.0579     0.7544 C.3     
  31 N31            3.6796    -9.8673     1.8336 N.3     
  32 O32            4.0477    -7.2385    -1.8379 O.2     
  33 O33            5.6657    -6.2675    -0.2381 O.2     
  34 C34            4.0874   -11.2795     1.7136 C.3     
  35 C35            4.2728   -11.2977     3.2373 C.3     
  36 C36            4.5040    -9.7912     3.0541 C.3     
  37 O37            3.0881   -11.6234     3.9670 O.3     
  38 H38           -1.7768    -1.3233    -0.3264 H       
  39 H39           -2.0464     2.9849    -1.2260 H       
  40 H40            1.7758     3.1852     0.7064 H       
  41 H41            1.8556     5.6069     0.3194 H       
  42 H42            2.0675     7.0299    -0.7096 H       
  43 H43            0.5096     9.6169    -1.1542 H       
  44 H44            2.2817     9.4745    -1.0658 H       
  45 H45            1.3930     8.7092    -2.4048 H       
  46 H46            1.0684     7.1286     1.5577 H       
  47 H47            2.0921     8.5515     1.2481 H       
  48 H48            0.3201     8.6939     1.1598 H       
  49 H49            1.4805    -5.8332     2.1425 H       
  50 H50           -0.7404    -4.9440     2.7030 H       
  51 H51           -1.3791    -2.6775     1.9882 H       
  52 H52            2.7116    -2.2250    -1.1483 H       
  53 H53            3.0515    -1.1458     0.2382 H       
  54 H54            4.8099    -3.1218    -0.5732 H       
  55 H55            4.6644    -2.6097     1.1415 H       
  56 H56            4.0742    -4.8733     1.4379 H       
  57 H57            2.9373    -5.0050    -1.3140 H       
  58 H58            3.8166    -7.1844     1.7205 H       
  59 H59            2.5500    -7.7570     0.6088 H       
  60 H60            4.0697    -9.5396    -0.2045 H       
  61 H61            5.3363    -8.9670     0.9072 H       
  62 H62            3.2884   -11.9341     1.3655 H       
  63 H63            5.0170   -11.4176     1.1614 H       
  64 H64            5.1525   -11.8466     3.5734 H       
  65 H65            5.5447    -9.5321     2.8597 H       
  66 H66            4.0580    -9.1844     3.8422 H       
  67 H67            3.2076   -11.6341     4.9266 H       
@<TRIPOS>BOND
   1    1    2 1
   2    1    3 2
   3    2    5 2
   4    2   38 1
   5    3    4 1
   6    3    6 1
   7    4    5 1
   8    5   18 1
   9    6    7 ar
  10    6    8 ar
  11    7   11 ar
  12    7   39 1
  13    8    9 ar
  14    8   40 1
  15    9   10 ar
  16    9   41 1
  17   10   11 ar
  18   10   12 1
  19   11   16 1
  20   12   13 1
  21   13   14 1
  22   13   15 1
  23   13   42 1
  24   14   43 1
  25   14   44 1
  26   14   45 1
  27   15   46 1
  28   15   47 1
  29   15   48 1
  30   16   17 3
  31   18   19 ar
  32   18   23 ar
  33   19   20 ar
  34   19   24 1
  35   20   21 ar
  36   20   26 1
  37   21   22 ar
  38   21   49 1
  39   22   23 ar
  40   22   50 1
  41   23   51 1
  42   24   25 1
  43   24   52 1
  44   24   53 1
  45   25   26 1
  46   25   54 1
  47   25   55 1
  48   26   27 1
  49   26   56 1
  50   27   28 am
  51   27   57 1
  52   28   29 1
  53   28   32 2
  54   28   33 2
  55   29   30 1
  56   29   58 1
  57   29   59 1
  58   30   31 1
  59   30   60 1
  60   30   61 1
  61   31   34 1
  62   31   36 1
  63   34   35 1
  64   34   62 1
  65   34   63 1
  66   35   36 1
  67   35   37 1
  68   35   64 1
  69   36   65 1
  70   36   66 1
  71   37   67 1

#	End of record

