#	Name: ASD00431233
#	Creating user name:	WinNT
#	Creation time:	15. 06. 2019 18:35

#	Modifying user name:	WinNT
#	Modification time:	15. 06. 2019 18:35

#	Program:	/corina/corina34_cracker 3.40 0067  02.08.2006

@<TRIPOS>MOLECULE
ASD00431233
  42   45    0    0    0
SMALL
NO_CHARGES


@<TRIPOS>ATOM
   1 C1             4.3815     7.0699    -8.6174 C.2     
   2 C2             5.1846     6.5814    -9.7952 C.3     
   3 C3             4.8241     6.8101    -7.3084 C.2     
   4 C4             4.1779     7.2041    -6.1612 C.2     
   5 C5             4.7966     6.8377    -5.0045 C.2     
   6 C6             5.9636     6.1353    -5.1740 C.2     
   7 S7             6.2847     5.9250    -6.8899 S.3     
   8 S8             6.5089     5.8202    -2.3623 S.3     
   9 C9             7.9422     4.9599    -2.0050 C.2     
  10 N10            8.5369     4.5975    -3.1009 N.2     
  11 C11            7.9655     4.9362    -4.2334 C.2     
  12 C12            6.8114     5.6307    -4.0877 C.2     
  13 O13            8.3934     4.6945    -0.7565 O.3     
  14 C14            9.5046     3.9214    -0.6304 C.ar    
  15 C15           10.7584     4.4643    -0.8714 C.ar    
  16 C16           11.8872     3.6792    -0.7428 C.ar    
  17 C17           11.7674     2.3475    -0.3726 C.ar    
  18 C18           10.5137     1.8047    -0.1311 C.ar    
  19 C19            9.3852     2.5911    -0.2551 C.ar    
  20 O20           12.8786     1.5743    -0.2469 O.3     
  21 C21           14.0827     2.1370    -0.5296 C.ar    
  22 C22           14.7461     2.8809     0.4358 C.ar    
  23 C23           15.9702     3.4515     0.1459 C.ar    
  24 C24           16.5346     3.2819    -1.1049 C.ar    
  25 C25           15.8754     2.5415    -2.0689 C.ar    
  26 C26           14.6537     1.9640    -1.7824 C.ar    
  27 O27            3.3537     7.6929    -8.7990 O.2     
  28 H28            4.8487     5.5829   -10.0750 H       
  29 H29            5.0457     7.2605   -10.6365 H       
  30 H30            6.2404     6.5475    -9.5262 H       
  31 H31            3.2526     7.7608    -6.1758 H       
  32 H32            4.4001     7.0811    -4.0299 H       
  33 H33            8.3797     4.6829    -5.1981 H       
  34 H34           10.8517     5.5009    -1.1599 H       
  35 H35           12.8632     4.1017    -0.9308 H       
  36 H36           10.4204     0.7680     0.1570 H       
  37 H37            8.4096     2.1697    -0.0631 H       
  38 H38           14.3055     3.0139     1.4128 H       
  39 H39           16.4868     4.0308     0.8969 H       
  40 H40           17.4917     3.7289    -1.3295 H       
  41 H41           16.3181     2.4112    -3.0454 H       
  42 H42           14.1415     1.3817    -2.5341 H       
@<TRIPOS>BOND
   1    1    2 1
   2    1    3 1
   3    1   27 2
   4    2   28 1
   5    2   29 1
   6    2   30 1
   7    3    4 2
   8    3    7 1
   9    4    5 1
  10    4   31 1
  11    5    6 2
  12    5   32 1
  13    6    7 1
  14    6   12 1
  15    8    9 1
  16    8   12 1
  17    9   10 2
  18    9   13 1
  19   10   11 1
  20   11   12 2
  21   11   33 1
  22   13   14 1
  23   14   15 ar
  24   14   19 ar
  25   15   16 ar
  26   15   34 1
  27   16   17 ar
  28   16   35 1
  29   17   18 ar
  30   17   20 1
  31   18   19 ar
  32   18   36 1
  33   19   37 1
  34   20   21 1
  35   21   22 ar
  36   21   26 ar
  37   22   23 ar
  38   22   38 1
  39   23   24 ar
  40   23   39 1
  41   24   25 ar
  42   24   40 1
  43   25   26 ar
  44   25   41 1
  45   26   42 1

#	End of record

