#	Name: ASD01708039
#	Creating user name:	WinNT
#	Creation time:	15. 06. 2019 19:22

#	Modifying user name:	WinNT
#	Modification time:	15. 06. 2019 19:22

#	Program:	/corina/corina34_cracker 3.40 0067  02.08.2006

@<TRIPOS>MOLECULE
ASD01708039
  69   72    0    0    0
SMALL
NO_CHARGES


@<TRIPOS>ATOM
   1 C1             0.1834     1.4844    -0.0457 C.2     
   2 N2             0.1530     0.1370    -0.0519 N.am    
   3 O3             1.2509     2.0690    -0.0274 O.2     
   4 C4             1.3886    -0.6565    -0.1589 C.3     
   5 C5            -1.1117    -0.5981     0.0536 C.3     
   6 C6            -0.9575    -1.7375     1.0305 C.ar    
   7 C7             0.2713    -2.1297     1.5159 C.ar    
   8 C8             1.5519    -1.4472     1.1381 C.3     
   9 C9            -2.1108    -2.3977     1.4375 C.ar    
  10 C10           -2.0441    -3.4525     2.3215 C.ar    
  11 C11           -0.8014    -3.8624     2.8126 C.ar    
  12 C12            0.3518    -3.1944     2.4037 C.ar    
  13 Cl13           1.8995    -3.6974     3.0082 Cl      
  14 Cl14          -3.4935    -4.2663     2.8223 Cl      
  15 C15           -0.7107    -4.9942     3.7572 C.2     
  16 N16           -0.7797    -4.7712     5.0846 N.am    
  17 O17           -0.5738    -6.1268     3.3374 O.2     
  18 C18           -0.6898    -5.8938     6.0216 C.3     
  19 C19           -2.0536    -6.5096     6.2002 C.2     
  20 O20           -2.2134    -7.5607     7.0196 O.3     
  21 O21           -3.0033    -6.0571     5.6058 O.2     
  22 C22           -1.0660     2.2441    -0.0669 C.2     
  23 C23           -1.0400     3.5893     0.0436 C.2     
  24 C24           -2.2955     4.3526     0.0223 C.ar    
  25 C25           -2.2737     5.7517     0.1369 C.ar    
  26 C26           -3.4645     6.4607     0.1155 C.ar    
  27 C27           -4.6663     5.7929    -0.0176 C.ar    
  28 C28           -4.6932     4.4121    -0.1311 C.ar    
  29 C29           -3.5200     3.6902    -0.1182 C.ar    
  30 O30           -1.0926     6.4066     0.2685 O.3     
  31 C31           -0.1764    -5.3909     7.3723 C.3     
  32 N32            1.0940    -4.6869     7.1805 N.pl3   
  33 C33            1.7446    -4.1473     8.2536 C.2     
  34 N34            2.9731    -3.5730     8.0893 N.pl3   
  35 N35            1.1856    -4.1808     9.4505 N.2     
  36 C36            0.0319    -4.8656     9.6405 C.1     
  37 N37           -0.9353    -5.4398     9.7998 N.1     
  38 C38            3.7804    -2.9577     9.1529 C.3     
  39 C39            3.7118    -3.4732     6.8174 C.3     
  40 C40            4.6654    -2.2671     7.0063 C.3     
  41 C41            5.0709    -2.4227     8.4972 C.3     
  42 H42            1.3144    -1.3429    -1.0024 H       
  43 H43            2.2424     0.0070    -0.2964 H       
  44 H44           -1.8946     0.0753     0.4025 H       
  45 H45           -1.3840    -0.9937    -0.9249 H       
  46 H46            2.3302    -2.1974     0.9984 H       
  47 H47            1.8473    -0.7704     1.9398 H       
  48 H48           -3.0703    -2.0802     1.0568 H       
  49 H49           -0.8890    -3.8675     5.4196 H       
  50 H50           -0.0022    -6.6420     5.6272 H       
  51 H51           -3.1068    -7.9214     7.1018 H       
  52 H52           -2.0095     1.7290    -0.1710 H       
  53 H53           -0.0966     4.1045     0.1478 H       
  54 H54           -3.4527     7.5370     0.2033 H       
  55 H55           -5.5910     6.3505    -0.0329 H       
  56 H56           -5.6383     3.8997    -0.2347 H       
  57 H57           -3.5459     2.6142    -0.2069 H       
  58 H58           -0.6918     6.6675    -0.5720 H       
  59 H59           -0.9072    -4.7096     7.8079 H       
  60 H60           -0.0250    -6.2378     8.0416 H       
  61 H61            1.4731    -4.6040     6.2915 H       
  62 H62            3.2283    -2.1361     9.6091 H       
  63 H63            4.0298    -3.7037     9.9076 H       
  64 H64            4.2830    -4.3840     6.6380 H       
  65 H65            3.0238    -3.2872     5.9927 H       
  66 H66            5.5354    -2.3512     6.3550 H       
  67 H67            4.1427    -1.3256     6.8378 H       
  68 H68            5.3498    -1.4591     8.9237 H       
  69 H69            5.8831    -3.1420     8.6029 H       
@<TRIPOS>BOND
   1    1    2 am
   2    1    3 2
   3    1   22 1
   4    2    4 1
   5    2    5 1
   6    4    8 1
   7    4   42 1
   8    4   43 1
   9    5    6 1
  10    5   44 1
  11    5   45 1
  12    6    7 ar
  13    6    9 ar
  14    7    8 1
  15    7   12 ar
  16    8   46 1
  17    8   47 1
  18    9   10 ar
  19    9   48 1
  20   10   11 ar
  21   10   14 1
  22   11   12 ar
  23   11   15 1
  24   12   13 1
  25   15   16 am
  26   15   17 2
  27   16   18 1
  28   16   49 1
  29   18   19 1
  30   18   31 1
  31   18   50 1
  32   19   20 1
  33   19   21 2
  34   20   51 1
  35   22   23 2
  36   22   52 1
  37   23   24 1
  38   23   53 1
  39   24   25 ar
  40   24   29 ar
  41   25   26 ar
  42   25   30 1
  43   26   27 ar
  44   26   54 1
  45   27   28 ar
  46   27   55 1
  47   28   29 ar
  48   28   56 1
  49   29   57 1
  50   30   58 1
  51   31   32 1
  52   31   59 1
  53   31   60 1
  54   32   33 1
  55   32   61 1
  56   33   34 1
  57   33   35 2
  58   34   38 1
  59   34   39 1
  60   35   36 1
  61   36   37 3
  62   38   41 1
  63   38   62 1
  64   38   63 1
  65   39   40 1
  66   39   64 1
  67   39   65 1
  68   40   41 1
  69   40   66 1
  70   40   67 1
  71   41   68 1
  72   41   69 1

#	End of record

