#	Name: ASD01911932
#	Creating user name:	WinNT
#	Creation time:	15. 06. 2019 19:58

#	Modifying user name:	WinNT
#	Modification time:	15. 06. 2019 19:58

#	Program:	/corina/corina34_cracker 3.40 0067  02.08.2006

@<TRIPOS>MOLECULE
ASD01911932
  41   43    0    0    0
SMALL
NO_CHARGES


@<TRIPOS>ATOM
   1 C1             2.1249    -5.2269     0.5320 C.ar    
   2 C2             2.2300    -4.8660    -0.8075 C.ar    
   3 C3             3.4026    -5.1832    -1.4855 C.ar    
   4 N4             4.3690    -5.8123    -0.8372 N.ar    
   5 C5             4.2314    -6.1374     0.4325 C.ar    
   6 N6             3.1364    -5.8544     1.1091 N.ar    
   7 O7             1.2133    -4.2206    -1.4374 O.3     
   8 C8             0.0929    -3.9427    -0.7206 C.ar    
   9 C9             0.0879    -2.8839     0.1769 C.ar    
  10 C10           -1.0528    -2.5996     0.9071 C.ar    
  11 C11           -2.1907    -3.3701     0.7442 C.ar    
  12 C12           -2.1894    -4.4302    -0.1529 C.ar    
  13 C13           -1.0471    -4.7129    -0.8897 C.ar    
  14 N14           -3.3388    -5.2091    -0.3175 N.am    
  15 C15           -3.2283    -6.5202    -0.6095 C.2     
  16 C16           -4.4425    -7.3222    -0.8872 C.ar    
  17 O17           -2.1325    -7.0446    -0.6450 O.2     
  18 C18           -4.3212    -8.6747    -1.1878 C.ar    
  19 F19           -1.0552    -1.5688     1.7805 F       
  20 C20           -5.4725    -9.4144    -1.4464 C.ar    
  21 C21           -6.7021    -8.7647    -1.3925 C.ar    
  22 C22           -6.7423    -7.4161    -1.0864 C.ar    
  23 N23           -5.6377    -6.7442    -0.8414 N.ar    
  24 O24           -5.3972   -10.7367    -1.7441 O.3     
  25 C25           -6.6289   -11.4164    -1.9951 C.3     
  26 C26           -6.3451   -12.8864    -2.3107 C.3     
  27 H27            1.2322    -4.9942     1.0936 H       
  28 H28            3.5220    -4.9201    -2.5262 H       
  29 H29            5.0390    -6.6509     0.9329 H       
  30 H30            0.9751    -2.2817     0.3057 H       
  31 H31           -3.0800    -3.1471     1.3151 H       
  32 H32           -1.0444    -5.5367    -1.5881 H       
  33 H33           -4.2158    -4.8059    -0.2215 H       
  34 H34           -3.3491    -9.1440    -1.2207 H       
  35 H35           -7.6152    -9.3075    -1.5878 H       
  36 H36           -7.6945    -6.9083    -1.0436 H       
  37 H37           -7.2664   -11.3506    -1.1134 H       
  38 H38           -7.1330   -10.9534    -2.8434 H       
  39 H39           -5.7076   -12.9522    -3.1923 H       
  40 H40           -5.8409   -13.3493    -1.4624 H       
  41 H41           -7.2846   -13.4048    -2.5021 H       
@<TRIPOS>BOND
   1    1    2 ar
   2    1    6 ar
   3    1   27 1
   4    2    3 ar
   5    2    7 1
   6    3    4 ar
   7    3   28 1
   8    4    5 ar
   9    5    6 ar
  10    5   29 1
  11    7    8 1
  12    8    9 ar
  13    8   13 ar
  14    9   10 ar
  15    9   30 1
  16   10   11 ar
  17   10   19 1
  18   11   12 ar
  19   11   31 1
  20   12   13 ar
  21   12   14 1
  22   13   32 1
  23   14   15 am
  24   14   33 1
  25   15   16 1
  26   15   17 2
  27   16   18 ar
  28   16   23 ar
  29   18   20 ar
  30   18   34 1
  31   20   21 ar
  32   20   24 1
  33   21   22 ar
  34   21   35 1
  35   22   23 ar
  36   22   36 1
  37   24   25 1
  38   25   26 1
  39   25   37 1
  40   25   38 1
  41   26   39 1
  42   26   40 1
  43   26   41 1

#	End of record

