#	Name: ASD01001216
#	Creating user name:	WinNT
#	Creation time:	15. 06. 2019 18:55

#	Modifying user name:	WinNT
#	Modification time:	15. 06. 2019 18:55

#	Program:	/corina/corina34_cracker 3.40 0067  02.08.2006

@<TRIPOS>MOLECULE
ASD01001216
  42   44    0    0    0
SMALL
NO_CHARGES


@<TRIPOS>ATOM
   1 C1            -3.0058     1.3468     3.8050 C.ar    
   2 C2            -2.9684    -0.0411     3.7952 C.ar    
   3 C3            -3.2968    -0.7396     2.6439 C.ar    
   4 C4            -3.6630    -0.0594     1.5022 C.ar    
   5 C5            -3.7031     1.3364     1.5054 C.ar    
   6 C6            -3.3763     2.0369     2.6680 C.ar    
   7 F7            -2.6847     2.0226     4.9299 F       
   8 F8            -2.6103    -0.7128     4.9113 F       
   9 C9            -4.0949     2.0701     0.2827 C.2     
  10 C10           -4.0178     3.4824     0.2499 C.2     
  11 O11           -4.4839     1.4586    -0.6961 O.2     
  12 C12           -2.6840     4.1966     0.3353 C.3     
  13 C13           -5.1315     4.2413     0.1356 C.2     
  14 C14           -6.4785     3.5719     0.0425 C.3     
  15 N15           -2.7118     5.6684     0.2921 N.am    
  16 C16           -1.8249     3.7144    -0.8051 C.ar    
  17 C17           -2.0796     4.1477    -2.0929 C.ar    
  18 C18           -1.2934     3.7067    -3.1415 C.ar    
  19 C19           -0.2511     2.8318    -2.9044 C.ar    
  20 C20            0.0069     2.3958    -1.6127 C.ar    
  21 C21           -0.7797     2.8441    -0.5618 C.ar    
  22 O22            1.0315     1.5347    -1.3769 O.3     
  23 C23           -3.9052     6.2845     0.1807 C.2     
  24 N24           -5.0551     5.6029     0.1037 N.am    
  25 S25           -3.9520     7.9951     0.1299 S.2     
  26 C26           -6.3016     6.3623    -0.0217 C.3     
  27 H27           -3.2655    -1.8191     2.6413 H       
  28 H28           -3.9182    -0.6054     0.6060 H       
  29 H29           -3.4058     3.1164     2.6757 H       
  30 H30           -2.2011     3.8968     1.2653 H       
  31 H31           -6.4651     2.6469     0.6189 H       
  32 H32           -7.2435     4.2378     0.4418 H       
  33 H33           -6.7010     3.3469    -1.0006 H       
  34 H34           -1.8906     6.1821     0.3429 H       
  35 H35           -2.8943     4.8315    -2.2804 H       
  36 H36           -1.4946     4.0463    -4.1468 H       
  37 H37            0.3622     2.4872    -3.7238 H       
  38 H38           -0.5809     2.5062     0.4445 H       
  39 H39            1.8744     1.9689    -1.1871 H       
  40 H40           -6.6689     6.6241     0.9705 H       
  41 H41           -6.1168     7.2723    -0.5926 H       
  42 H42           -7.0465     5.7555    -0.5365 H       
@<TRIPOS>BOND
   1    1    2 ar
   2    1    7 1
   3    1    6 ar
   4    2    3 ar
   5    2    8 1
   6    3    4 ar
   7    3   27 1
   8    4    5 ar
   9    4   28 1
  10    5    6 ar
  11    5    9 1
  12    6   29 1
  13    9   10 1
  14    9   11 2
  15   10   12 1
  16   10   13 2
  17   12   15 1
  18   12   16 1
  19   12   30 1
  20   13   14 1
  21   13   24 1
  22   14   31 1
  23   14   32 1
  24   14   33 1
  25   15   23 am
  26   15   34 1
  27   16   17 ar
  28   16   21 ar
  29   17   18 ar
  30   17   35 1
  31   18   19 ar
  32   18   36 1
  33   19   20 ar
  34   19   37 1
  35   20   21 ar
  36   20   22 1
  37   21   38 1
  38   22   39 1
  39   23   24 am
  40   23   25 2
  41   24   26 1
  42   26   40 1
  43   26   41 1
  44   26   42 1

#	End of record

