#	Name: ASD08178329
#	Creating user name:	WinNT
#	Creation time:	15. 06. 2019 21:18

#	Modifying user name:	WinNT
#	Modification time:	15. 06. 2019 21:18

#	Program:	/corina/corina34_cracker 3.40 0067  02.08.2006

@<TRIPOS>MOLECULE
ASD08178329
  83   87    0    0    0
SMALL
NO_CHARGES


@<TRIPOS>ATOM
   1 N1             0.0502     1.6780     0.3354 N.am    
   2 C2             0.0651     0.2840     0.3038 C.ar    
   3 C3             1.2700    -0.3999     0.1540 C.ar    
   4 N4            -1.0654    -0.3963     0.4215 N.ar    
   5 N5            -1.0946    -1.6793     0.3979 N.ar    
   6 C6            -0.0035    -2.4058     0.2551 C.ar    
   7 C7             1.2311    -1.7857     0.1291 C.ar    
   8 C8            -0.0970    -3.9097     0.2349 C.3     
   9 C9            -0.8114    -4.3934     1.4984 C.3     
  10 C10           -0.9063    -5.9203     1.4778 C.3     
  11 C11           -1.6208    -6.4040     2.7414 C.3     
  12 C12           -1.7143    -7.9079     2.7211 C.2     
  13 N13           -0.8428    -8.7341     3.2065 N.2     
  14 N14           -1.1043    -9.9637     3.0903 N.2     
  15 C15           -2.2139   -10.2911     2.4998 C.2     
  16 S16           -3.0337    -8.8593     2.0389 S.3     
  17 N17           -2.6645   -11.5888     2.2828 N.am    
  18 C18           -1.9272   -12.6368     2.7005 C.2     
  19 C19           -2.4154   -14.0430     2.4654 C.3     
  20 O20           -0.8708   -12.4482     3.2657 O.2     
  21 C21           -1.4149   -15.0221     3.0235 C.ar    
  22 C22           -1.5240   -15.4499     4.3333 C.ar    
  23 C23           -0.6072   -16.3482     4.8461 C.ar    
  24 C24            0.4206   -16.8194     4.0474 C.ar    
  25 C25            0.5289   -16.3901     2.7353 C.ar    
  26 C26           -0.3918   -15.4961     2.2232 C.ar    
  27 C27           -1.1238     2.3386     0.3772 C.2     
  28 C28           -1.1398     3.8380     0.5268 C.3     
  29 O29           -2.1674     1.7263     0.2943 O.2     
  30 C30           -2.5655     4.3258     0.5461 C.ar    
  31 C31           -3.2441     4.4304     1.7458 C.ar    
  32 C32           -3.1929     4.6740    -0.6355 C.ar    
  33 C33           -4.5007     5.1215    -0.6179 C.ar    
  34 C34           -5.1813     5.2202     0.5813 C.ar    
  35 C35           -4.5519     4.8778     1.7635 C.ar    
  36 F36            1.3176   -17.6971     4.5477 F       
  37 C37            1.6475   -16.9018     1.8646 C.3     
  38 N38            2.9060   -16.2500     2.2509 N.3     
  39 C39            4.0534   -16.8890     1.5928 C.3     
  40 C40            5.3195   -16.0733     1.8754 C.3     
  41 N41            5.4517   -15.9049     3.3305 N.am    
  42 C42            4.2927   -15.3973     4.0804 C.3     
  43 C43            3.0670   -16.2396     3.7110 C.3     
  44 C44            6.6044   -16.2073     3.9600 C.2     
  45 C45            6.7613   -15.9095     5.4290 C.3     
  46 O46            7.5154   -16.7191     3.3444 O.2     
  47 H47            0.8849     2.1721     0.3314 H       
  48 H48            2.2047     0.1328     0.0600 H       
  49 H49            2.1348    -2.3652     0.0111 H       
  50 H50           -0.6583    -4.2271    -0.6439 H       
  51 H51            0.9057    -4.3356     0.1989 H       
  52 H52           -0.2502    -4.0760     2.3772 H       
  53 H53           -1.8142    -3.9675     1.5344 H       
  54 H54           -1.4676    -6.2377     0.5990 H       
  55 H55            0.0964    -6.3462     1.4419 H       
  56 H56           -1.0595    -6.0866     3.6202 H       
  57 H57           -2.6235    -5.9781     2.7774 H       
  58 H58           -3.5094   -11.7396     1.8308 H       
  59 H59           -3.3757   -14.1820     2.9620 H       
  60 H60           -2.5319   -14.2130     1.3950 H       
  61 H61           -2.3257   -15.0819     4.9564 H       
  62 H62           -0.6924   -16.6821     5.8697 H       
  63 H63           -0.3076   -15.1611     1.1999 H       
  64 H64           -0.6483     4.1153     1.4594 H       
  65 H65           -0.6115     4.2925    -0.3114 H       
  66 H66           -2.7526     4.1622     2.6694 H       
  67 H67           -2.6611     4.5969    -1.5723 H       
  68 H68           -4.9906     5.3942    -1.5409 H       
  69 H69           -6.2029     5.5701     0.5951 H       
  70 H70           -5.0837     4.9550     2.7003 H       
  71 H71            1.7428   -17.9801     1.9919 H       
  72 H72            1.4274   -16.6772     0.8209 H       
  73 H73            4.1782   -17.9001     1.9802 H       
  74 H74            3.8796   -16.9299     0.5175 H       
  75 H75            6.1901   -16.6022     1.4875 H       
  76 H76            5.2393   -15.0960     1.3995 H       
  77 H77            4.4843   -15.4793     5.1503 H       
  78 H78            4.1138   -14.3550     3.8165 H       
  79 H79            2.1778   -15.8096     4.1719 H       
  80 H80            3.2055   -17.2598     4.0689 H       
  81 H81            5.8182   -15.5345     5.8264 H       
  82 H82            7.0411   -16.8213     5.9567 H       
  83 H83            7.5382   -15.1574     5.5662 H       
@<TRIPOS>BOND
   1    1    2 1
   2    1   27 am
   3    1   47 1
   4    2    3 ar
   5    2    4 ar
   6    3    7 ar
   7    3   48 1
   8    4    5 ar
   9    5    6 ar
  10    6    7 ar
  11    6    8 1
  12    7   49 1
  13    8    9 1
  14    8   50 1
  15    8   51 1
  16    9   10 1
  17    9   52 1
  18    9   53 1
  19   10   11 1
  20   10   54 1
  21   10   55 1
  22   11   12 1
  23   11   56 1
  24   11   57 1
  25   12   13 2
  26   12   16 1
  27   13   14 1
  28   14   15 2
  29   15   16 1
  30   15   17 1
  31   17   18 am
  32   17   58 1
  33   18   19 1
  34   18   20 2
  35   19   21 1
  36   19   59 1
  37   19   60 1
  38   21   22 ar
  39   21   26 ar
  40   22   23 ar
  41   22   61 1
  42   23   24 ar
  43   23   62 1
  44   24   25 ar
  45   24   36 1
  46   25   26 ar
  47   25   37 1
  48   26   63 1
  49   27   28 1
  50   27   29 2
  51   28   30 1
  52   28   64 1
  53   28   65 1
  54   30   31 ar
  55   30   32 ar
  56   31   35 ar
  57   31   66 1
  58   32   33 ar
  59   32   67 1
  60   33   34 ar
  61   33   68 1
  62   34   35 ar
  63   34   69 1
  64   35   70 1
  65   37   38 1
  66   37   71 1
  67   37   72 1
  68   38   39 1
  69   38   43 1
  70   39   40 1
  71   39   73 1
  72   39   74 1
  73   40   41 1
  74   40   75 1
  75   40   76 1
  76   41   42 1
  77   41   44 am
  78   42   43 1
  79   42   77 1
  80   42   78 1
  81   43   79 1
  82   43   80 1
  83   44   45 1
  84   44   46 2
  85   45   81 1
  86   45   82 1
  87   45   83 1

#	End of record

