#	Name: ASD03920016
#	Creating user name:	WinNT
#	Creation time:	15. 06. 2019 20:47

#	Modifying user name:	WinNT
#	Modification time:	15. 06. 2019 20:47

#	Program:	/corina/corina34_cracker 3.40 0067  02.08.2006

@<TRIPOS>MOLECULE
ASD03920016
  55   59    0    0    0
SMALL
NO_CHARGES


@<TRIPOS>ATOM
   1 O1            -0.0174     1.4354     0.0099 O.3     
   2 C2             0.0021    -0.0041     0.0020 C.3     
   3 O3             1.2438    -0.3266    -0.6516 O.3     
   4 C4             2.0691     0.7335    -0.4081 C.ar    
   5 C5             1.2912     1.8185    -0.0005 C.ar    
   6 C6             3.4405     0.8644    -0.5021 C.ar    
   7 C7             4.0472     2.0838    -0.1884 C.ar    
   8 C8             3.2633     3.1655     0.2189 C.ar    
   9 C9             1.8951     3.0290     0.3108 C.ar    
  10 C10            5.5130     2.2278    -0.2870 C.2     
  11 O11            6.1940     1.2850    -0.6414 O.2     
  12 N12            6.0963     3.4045     0.0159 N.am    
  13 C13            7.5510     3.5474    -0.0820 C.3     
  14 C14            7.9049     5.0189    -0.3069 C.3     
  15 C15            7.3882     5.8529     0.8672 C.3     
  16 C16            8.0370     5.3648     2.1640 C.3     
  17 C17            7.6832     3.8934     2.3889 C.3     
  18 C18            8.1998     3.0594     1.2149 C.3     
  19 N19            7.5423     6.1634     3.2882 N.pl3   
  20 N20            8.1564     7.2947     3.8441 N.2     
  21 N21            7.4224     7.7200     4.8127 N.2     
  22 C22            6.3420     6.9304     4.9377 C.2     
  23 C23            6.4062     5.9553     3.9834 C.2     
  24 C24            5.2663     7.0923     5.9343 C.2     
  25 O25            4.3331     6.3130     5.9536 O.2     
  26 N26            5.3180     8.1040     6.8233 N.am    
  27 C27            4.3185     8.3807     7.8654 C.3     
  28 C28            4.7817     9.6444     8.6204 C.3     
  29 C29            5.7214    10.3356     7.5974 C.3     
  30 C30            6.3893     9.1125     6.9160 C.3     
  31 H31           -0.0068    -0.3927     1.0203 H       
  32 H32           -0.8422    -0.3953    -0.5656 H       
  33 H33            4.0435     0.0256    -0.8171 H       
  34 H34            3.7294     4.1089     0.4620 H       
  35 H35            1.2906     3.8668     0.6257 H       
  36 H36            5.5530     4.1566     0.2986 H       
  37 H37            7.9191     2.9533    -0.9184 H       
  38 H38            8.9872     5.1253    -0.3797 H       
  39 H39            7.4426     5.3666    -1.2308 H       
  40 H40            7.6403     6.9012     0.7069 H       
  41 H41            6.3059     5.7465     0.9400 H       
  42 H42            9.1194     5.4712     2.0912 H       
  43 H43            8.1454     3.5456     3.3128 H       
  44 H44            6.6008     3.7870     2.4617 H       
  45 H45            7.9477     2.0111     1.3751 H       
  46 H46            9.2822     3.1658     1.1421 H       
  47 H47            5.6859     5.1676     3.8186 H       
  48 H48            3.3453     8.5582     7.4078 H       
  49 H49            4.2584     7.5383     8.5545 H       
  50 H50            3.9323    10.2849     8.8579 H       
  51 H51            5.3276     9.3751     9.5247 H       
  52 H52            5.1511    10.9243     6.8788 H       
  53 H53            6.4640    10.9524     8.1036 H       
  54 H54            7.2114     8.7377     7.5257 H       
  55 H55            6.7452     9.3804     5.9212 H       
@<TRIPOS>BOND
   1    1    2 1
   2    1    5 1
   3    2    3 1
   4    2   31 1
   5    2   32 1
   6    3    4 1
   7    4    5 ar
   8    4    6 ar
   9    5    9 ar
  10    6    7 ar
  11    6   33 1
  12    7    8 ar
  13    7   10 1
  14    8    9 ar
  15    8   34 1
  16    9   35 1
  17   10   11 2
  18   10   12 am
  19   12   13 1
  20   12   36 1
  21   13   14 1
  22   13   18 1
  23   13   37 1
  24   14   15 1
  25   14   38 1
  26   14   39 1
  27   15   16 1
  28   15   40 1
  29   15   41 1
  30   16   17 1
  31   16   19 1
  32   16   42 1
  33   17   18 1
  34   17   43 1
  35   17   44 1
  36   18   45 1
  37   18   46 1
  38   19   20 1
  39   19   23 1
  40   20   21 2
  41   21   22 1
  42   22   23 2
  43   22   24 1
  44   23   47 1
  45   24   25 2
  46   24   26 am
  47   26   27 1
  48   26   30 1
  49   27   28 1
  50   27   48 1
  51   27   49 1
  52   28   29 1
  53   28   50 1
  54   28   51 1
  55   29   30 1
  56   29   52 1
  57   29   53 1
  58   30   54 1
  59   30   55 1

#	End of record

