#	Name: ASD03240531
#	Creating user name:	WinNT
#	Creation time:	15. 06. 2019 20:35

#	Modifying user name:	WinNT
#	Modification time:	15. 06. 2019 20:35

#	Program:	/corina/corina34_cracker 3.40 0067  02.08.2006

@<TRIPOS>MOLECULE
ASD03240531
  63   69    0    0    0
SMALL
NO_CHARGES


@<TRIPOS>ATOM
   1 C1            -0.0166     1.3755     0.0096 C.ar    
   2 C2             0.0021    -0.0041     0.0020 C.ar    
   3 N3             1.1422    -0.6683    -0.0058 N.ar    
   4 C4             2.3145    -0.0481    -0.0058 C.ar    
   5 C5             2.3702     1.3442    -0.0124 C.ar    
   6 C6             1.1860     2.0698     0.0019 C.ar    
   7 N7             3.4819    -0.8059     0.0219 N.pl3   
   8 C8             4.3589    -0.7198     1.0996 C.ar    
   9 C9             4.9952     0.4883     1.4038 C.ar    
  10 C10            4.7640     1.6831     0.5623 C.2     
  11 N11            3.5938     2.0277    -0.0512 N.pl3   
  12 C12            4.6046    -1.8397     1.8828 C.ar    
  13 C13            5.4643    -1.7547     2.9612 C.ar    
  14 C14            6.0855    -0.5569     3.2702 C.ar    
  15 C15            5.8561     0.5643     2.4984 C.ar    
  16 N16            5.6757     2.5930     0.2860 N.2     
  17 C17            5.1452     3.5396    -0.5051 C.2     
  18 C18            3.8213     3.2025    -0.7360 C.2     
  19 C19            2.8478     3.9520    -1.5533 C.ar    
  20 C20            2.7482     5.3400    -1.4289 C.ar    
  21 C21            2.0254     3.2778    -2.4594 C.ar    
  22 C22            1.1178     3.9849    -3.2200 C.ar    
  23 C23            1.0210     5.3589    -3.0876 C.ar    
  24 C24            1.8360     6.0341    -2.1960 C.ar    
  25 C25            5.8479     4.7281    -1.0348 C.ar    
  26 C26            0.0275     6.1245    -3.9230 C.3     
  27 N27           -1.0510     5.2760    -4.4471 N.3     
  28 C28           -0.4740     7.4155    -3.2547 C.3     
  29 C29           -0.3875     8.0739    -4.6417 C.3     
  30 C30            0.6799     7.0203    -4.9892 C.3     
  31 C31            6.8192     5.3678    -0.2604 C.ar    
  32 C32            7.4683     6.4658    -0.7488 C.ar    
  33 C33            7.1608     6.9496    -2.0246 C.ar    
  34 C34            6.1887     6.3083    -2.7994 C.ar    
  35 C35            5.5443     5.2073    -2.3118 C.ar    
  36 C36            7.8607     8.1352    -2.5524 C.2     
  37 O37            8.7049     8.6922    -1.8789 O.2     
  38 O38            7.5642     8.6010    -3.7817 O.3     
  39 H39           -0.9556     1.9091     0.0170 H       
  40 H40           -0.9306    -0.5486     0.0028 H       
  41 H41            1.2001     3.1497     0.0064 H       
  42 H42            3.6862    -1.4001    -0.7170 H       
  43 H43            4.1231    -2.7778     1.6491 H       
  44 H44            5.6526    -2.6286     3.5673 H       
  45 H45            6.7518    -0.4993     4.1182 H       
  46 H46            6.3421     1.4977     2.7414 H       
  47 H47            3.3836     5.8682    -0.7334 H       
  48 H48            2.1005     2.2055    -2.5642 H       
  49 H49            0.4815     3.4650    -3.9208 H       
  50 H50            1.7547     7.1065    -2.0977 H       
  51 H51           -0.6778     4.4541    -4.8980 H       
  52 H52           -1.7005     5.0244    -3.7170 H       
  53 H53           -1.4909     7.3411    -2.8693 H       
  54 H54            0.2251     7.8318    -2.5294 H       
  55 H55           -1.3011     7.9779    -5.2284 H       
  56 H56           -0.0039     9.0939    -4.6177 H       
  57 H57            1.6950     7.3280    -4.7384 H       
  58 H58            0.5934     6.6290    -6.0029 H       
  59 H59            7.0565     4.9942     0.7247 H       
  60 H60            8.2185     6.9606    -0.1498 H       
  61 H61            5.9508     6.6813    -3.7846 H       
  62 H62            4.7937     4.7121    -2.9099 H       
  63 H63            8.0494     9.3807    -4.0845 H       
@<TRIPOS>BOND
   1    1    2 ar
   2    1    6 ar
   3    1   39 1
   4    2    3 ar
   5    2   40 1
   6    3    4 ar
   7    4    5 ar
   8    4    7 1
   9    5    6 ar
  10    5   11 1
  11    6   41 1
  12    7    8 1
  13    7   42 1
  14    8    9 ar
  15    8   12 ar
  16    9   10 1
  17    9   15 ar
  18   10   11 1
  19   10   16 2
  20   11   18 1
  21   12   13 ar
  22   12   43 1
  23   13   14 ar
  24   13   44 1
  25   14   15 ar
  26   14   45 1
  27   15   46 1
  28   16   17 1
  29   17   18 2
  30   17   25 1
  31   18   19 1
  32   19   20 ar
  33   19   21 ar
  34   20   24 ar
  35   20   47 1
  36   21   22 ar
  37   21   48 1
  38   22   23 ar
  39   22   49 1
  40   23   24 ar
  41   23   26 1
  42   24   50 1
  43   25   31 ar
  44   25   35 ar
  45   26   27 1
  46   26   28 1
  47   26   30 1
  48   27   51 1
  49   27   52 1
  50   28   29 1
  51   28   53 1
  52   28   54 1
  53   29   30 1
  54   29   55 1
  55   29   56 1
  56   30   57 1
  57   30   58 1
  58   31   32 ar
  59   31   59 1
  60   32   33 ar
  61   32   60 1
  62   33   34 ar
  63   33   36 1
  64   34   35 ar
  65   34   61 1
  66   35   62 1
  67   36   37 2
  68   36   38 1
  69   38   63 1

#	End of record

