#	Name: ASD01410800
#	Creating user name:	WinNT
#	Creation time:	15. 06. 2019 19:18

#	Modifying user name:	WinNT
#	Modification time:	15. 06. 2019 19:18

#	Program:	/corina/corina34_cracker 3.40 0067  02.08.2006

@<TRIPOS>MOLECULE
ASD01410800
  29   30    0    0    0
SMALL
NO_CHARGES


@<TRIPOS>ATOM
   1 C1            -0.0187     1.5258     0.0104 C.3     
   2 C2             0.0021    -0.0041     0.0020 C.3     
   3 C3             1.3165     0.7789    -0.0063 C.3     
   4 S4            -0.5282     2.3649    -1.5150 S.o2    
   5 O5             0.3847     2.0843    -2.5672 O.2     
   6 O6            -1.9303     2.2395    -1.7086 O.2     
   7 N7            -0.3022     3.9742    -1.1965 N.am    
   8 C8             0.9400     4.4506    -0.9813 C.2     
   9 O9             1.8924     3.7007    -1.0208 O.2     
  10 C10            1.1457     5.9152    -0.6915 C.3     
  11 C11            2.5119     6.5166    -1.0270 C.3     
  12 C12            2.1162     6.2834     0.4325 C.3     
  13 C13            3.5489     5.5992    -1.6219 C.2     
  14 C14            4.0478     5.8550    -2.8059 C.2     
  15 N15           -0.0354     6.7692    -0.8748 N.3     
  16 H16           -0.3072     2.0201     0.9381 H       
  17 H17           -0.2728    -0.5162     0.9241 H       
  18 H18           -0.2904    -0.5063    -0.9201 H       
  19 H19            1.8888     0.7918    -0.9339 H       
  20 H20            1.9064     0.7818     0.9103 H       
  21 H21           -1.0639     4.5740    -1.1649 H       
  22 H22            2.5345     7.5463    -1.3839 H       
  23 H23            1.8786     7.1596     1.0357 H       
  24 H24            2.6060     5.4664     0.9623 H       
  25 H25            3.8809     4.7309    -1.0721 H       
  26 H26            4.7910     5.1975    -3.2322 H       
  27 H27            3.7158     6.7233    -3.3557 H       
  28 H28           -0.8801     6.2765    -0.6261 H       
  29 H29            0.0522     7.6253    -0.3480 H       
@<TRIPOS>BOND
   1    1    2 1
   2    1    3 1
   3    1    4 1
   4    1   16 1
   5    2    3 1
   6    2   17 1
   7    2   18 1
   8    3   19 1
   9    3   20 1
  10    4    5 2
  11    4    6 2
  12    4    7 am
  13    7    8 am
  14    7   21 1
  15    8    9 2
  16    8   10 1
  17   10   12 1
  18   10   15 1
  19   10   11 1
  20   11   12 1
  21   11   13 1
  22   11   22 1
  23   12   23 1
  24   12   24 1
  25   13   14 2
  26   13   25 1
  27   14   26 1
  28   14   27 1
  29   15   28 1
  30   15   29 1

#	End of record

