#	Name: ASD01918106
#	Creating user name:	WinNT
#	Creation time:	15. 06. 2019 20:10

#	Modifying user name:	WinNT
#	Modification time:	15. 06. 2019 20:10

#	Program:	/corina/corina34_cracker 3.40 0067  02.08.2006

@<TRIPOS>MOLECULE
ASD01918106
  44   47    0    0    0
SMALL
NO_CHARGES


@<TRIPOS>ATOM
   1 N1            -0.1218     1.4394    -0.5212 N.am    
   2 C2            -0.0494     0.0429    -0.5404 C.2     
   3 C3             1.8476     0.0228    -2.1617 C.3     
   4 C4             1.3822     1.4555    -2.4463 C.3     
   5 C5             1.0148     2.1557    -1.1334 C.3     
   6 C6            -0.7939    -0.8682     0.1221 C.2     
   7 C7            -0.3261    -2.1392    -0.2349 C.2     
   8 N8             0.6643    -1.9955    -1.0824 N.2     
   9 N9             0.8630    -0.6326    -1.2972 N.pl3   
  10 C10           -0.8692    -3.4511     0.2703 C.3     
  11 O11           -1.9446    -3.2035     1.1781 O.3     
  12 C12           -1.1696     2.0925     0.0191 C.2     
  13 C13           -1.1406     3.5649     0.1385 C.ar    
  14 O14           -2.1388     1.4701     0.4082 O.2     
  15 C15           -2.5496    -4.2888     1.7286 C.ar    
  16 C16           -3.6008    -4.1216     2.6184 C.ar    
  17 C17           -4.2140    -5.2264     3.1767 C.ar    
  18 C18           -3.7810    -6.4980     2.8493 C.ar    
  19 C19           -2.7332    -6.6673     1.9632 C.ar    
  20 C20           -2.1207    -5.5659     1.3974 C.ar    
  21 C21            0.0924     5.6023     0.4508 C.ar    
  22 C22            0.0716     4.2279     0.3406 C.ar    
  23 C23           -2.3243     4.2993     0.0438 C.ar    
  24 C24           -2.2907     5.6733     0.1555 C.ar    
  25 C25           -1.0859     6.3250     0.3613 C.ar    
  26 Cl26          -1.0517     8.0549     0.5015 Cl      
  27 H27            1.9330    -0.5264    -3.0994 H       
  28 H28            2.8155     0.0460    -1.6608 H       
  29 H29            2.1846     2.0058    -2.9378 H       
  30 H30            0.5100     1.4297    -3.0994 H       
  31 H31            0.7304     3.1882    -1.3363 H       
  32 H32            1.8685     2.1347    -0.4560 H       
  33 H33           -1.6036    -0.6552     0.8043 H       
  34 H34           -1.2322    -4.0420    -0.5706 H       
  35 H35           -0.0785    -3.9979     0.7842 H       
  36 H36           -3.9392    -3.1285     2.8746 H       
  37 H37           -5.0322    -5.0967     3.8696 H       
  38 H38           -4.2617    -7.3605     3.2869 H       
  39 H39           -2.3963    -7.6616     1.7097 H       
  40 H40           -1.3023    -5.6987     0.7053 H       
  41 H41            1.0293     6.1162     0.6072 H       
  42 H42            0.9909     3.6654     0.4109 H       
  43 H43           -3.2643     3.7923    -0.1170 H       
  44 H44           -3.2056     6.2425     0.0821 H       
@<TRIPOS>BOND
   1    1    2 1
   2    1    5 1
   3    1   12 am
   4    2    6 2
   5    2    9 1
   6    3    4 1
   7    3    9 1
   8    3   27 1
   9    3   28 1
  10    4    5 1
  11    4   29 1
  12    4   30 1
  13    5   31 1
  14    5   32 1
  15    6    7 1
  16    6   33 1
  17    7    8 2
  18    7   10 1
  19    8    9 1
  20   10   11 1
  21   10   34 1
  22   10   35 1
  23   11   15 1
  24   12   13 1
  25   12   14 2
  26   13   23 ar
  27   13   22 ar
  28   15   16 ar
  29   15   20 ar
  30   16   17 ar
  31   16   36 1
  32   17   18 ar
  33   17   37 1
  34   18   19 ar
  35   18   38 1
  36   19   20 ar
  37   19   39 1
  38   20   40 1
  39   21   22 ar
  40   21   25 ar
  41   21   41 1
  42   22   42 1
  43   23   24 ar
  44   23   43 1
  45   24   25 ar
  46   24   44 1
  47   25   26 1

#	End of record

