#	Name: ASD03092895
#	Creating user name:	WinNT
#	Creation time:	15. 06. 2019 20:33

#	Modifying user name:	WinNT
#	Modification time:	15. 06. 2019 20:33

#	Program:	/corina/corina34_cracker 3.40 0067  02.08.2006

@<TRIPOS>MOLECULE
ASD03092895
  48   51    0    0    0
SMALL
NO_CHARGES


@<TRIPOS>ATOM
   1 N1            -0.8540    -1.3408    -1.0358 N.am    
   2 S2            -0.0874    -0.3384     0.0365 S.o2    
   3 O3            -0.1909     0.9745    -0.4973 O.2     
   4 O4            -0.5638    -0.6922     1.3276 O.2     
   5 C5             1.6246    -0.7541     0.0067 C.ar    
   6 C6             2.1132    -1.7209     0.8674 C.ar    
   7 C7             3.4524    -2.0524     0.8505 C.ar    
   8 C8             4.3165    -1.4100    -0.0380 C.ar    
   9 C9             5.7506    -1.7600    -0.0619 C.2     
  10 S10            6.7076    -2.1275    -1.4948 S.3     
  11 C11            8.0937    -2.3721    -0.5263 C.2     
  12 C12            9.4518    -2.7512    -1.0582 C.3     
  13 C13            9.5732    -4.2756    -1.1067 C.3     
  14 C14           10.9487    -4.6906    -1.6853 C.3     
  15 C15           11.1367    -6.1147    -1.1033 C.3     
  16 C16           10.5366    -6.0135     0.3144 C.3     
  17 C17            9.5634    -4.8533     0.2975 C.2     
  18 O18            8.9023    -4.4602     1.2284 O.2     
  19 N19            7.8224    -2.1885     0.7191 N.2     
  20 C20            6.5805    -1.8520     1.0277 C.2     
  21 C21            6.1280    -1.6029     2.4160 C.ar    
  22 C22            5.2868    -0.5260     2.6954 C.ar    
  23 C23            4.8681    -0.2989     3.9902 C.ar    
  24 C24            5.2814    -1.1377     5.0113 C.ar    
  25 Cl25           4.7507    -0.8460     6.6383 Cl      
  26 C26            6.1161    -2.2084     4.7396 C.ar    
  27 C27            6.5370    -2.4477     3.4477 C.ar    
  28 C28            3.8168    -0.4334    -0.9058 C.ar    
  29 F29            4.6453     0.1934    -1.7696 F       
  30 C30            2.4725    -0.1162    -0.8813 C.ar    
  31 H31           -0.3446    -1.9995    -1.5333 H       
  32 H32           -1.8131    -1.2720    -1.1635 H       
  33 H33            1.4443    -2.2173     1.5548 H       
  34 H34            3.8315    -2.8071     1.5236 H       
  35 H35            9.5753    -2.3447    -2.0620 H       
  36 H36           10.2242    -2.3458    -0.4046 H       
  37 H37            8.7643    -4.7024    -1.6996 H       
  38 H38           10.9189    -4.7178    -2.7746 H       
  39 H39           11.7346    -4.0217    -1.3346 H       
  40 H40           10.5912    -6.8468    -1.6987 H       
  41 H41           12.1948    -6.3716    -1.0539 H       
  42 H42           10.0122    -6.9360     0.5637 H       
  43 H43           11.3272    -5.8260     1.0410 H       
  44 H44            4.9641     0.1291     1.8997 H       
  45 H45            4.2170     0.5349     4.2077 H       
  46 H46            6.4355    -2.8595     5.5399 H       
  47 H47            7.1851    -3.2854     3.2363 H       
  48 H48            2.0834     0.6341    -1.5536 H       
@<TRIPOS>BOND
   1    1    2 am
   2    1   31 1
   3    1   32 1
   4    2    3 2
   5    2    4 2
   6    2    5 1
   7    5   30 ar
   8    5    6 ar
   9    6    7 ar
  10    6   33 1
  11    7    8 ar
  12    7   34 1
  13    8    9 1
  14    8   28 ar
  15    9   20 2
  16    9   10 1
  17   10   11 1
  18   11   12 1
  19   11   19 2
  20   12   13 1
  21   12   35 1
  22   12   36 1
  23   13   17 1
  24   13   14 1
  25   13   37 1
  26   14   15 1
  27   14   38 1
  28   14   39 1
  29   15   16 1
  30   15   40 1
  31   15   41 1
  32   16   17 1
  33   16   42 1
  34   16   43 1
  35   17   18 2
  36   19   20 1
  37   20   21 1
  38   21   27 ar
  39   21   22 ar
  40   22   23 ar
  41   22   44 1
  42   23   24 ar
  43   23   45 1
  44   24   25 1
  45   24   26 ar
  46   26   27 ar
  47   26   46 1
  48   27   47 1
  49   28   29 1
  50   28   30 ar
  51   30   48 1

#	End of record

