#	Name: ASD05430623
#	Creating user name:	WinNT
#	Creation time:	15. 06. 2019 21:00

#	Modifying user name:	WinNT
#	Modification time:	15. 06. 2019 21:00

#	Program:	/corina/corina34_cracker 3.40 0067  02.08.2006

@<TRIPOS>MOLECULE
ASD05430623
  33   35    0    0    0
SMALL
NO_CHARGES


@<TRIPOS>ATOM
   1 C1            -0.0168     1.3887     0.0097 C.ar    
   2 C2             0.0021    -0.0041     0.0020 C.ar    
   3 C3             1.2148    -0.6692    -0.0131 C.ar    
   4 C4             2.4010     0.0529    -0.0206 C.ar    
   5 C5             2.3987     1.4134    -0.0128 C.ar    
   6 C6             1.1803     2.1279     0.0022 C.ar    
   7 C7             3.7057     2.1636    -0.0203 C.3     
   8 C8             4.5182     1.7848     1.2196 C.3     
   9 C9             4.4957     1.7990    -1.2788 C.3     
  10 N10           -1.1998    -0.7268     0.0101 N.pl3   
  11 C11           -2.2452    -0.5454     0.8578 C.2     
  12 C12           -1.5436    -1.7457    -0.8400 C.2     
  13 C13           -2.7761    -2.1535    -0.4818 C.2     
  14 N14           -3.1798    -1.4050     0.5553 N.2     
  15 C15           -3.5669    -3.2569    -1.1362 C.3     
  16 C16            0.9246     3.5550     0.0127 C.2     
  17 N17           -0.3019     3.9459     0.0260 N.2     
  18 S18           -1.3129     2.5868     0.0213 S.3     
  19 H19            1.2392    -1.7489    -0.0188 H       
  20 H20            3.3429    -0.4754    -0.0324 H       
  21 H21            3.5093     3.2357    -0.0124 H       
  22 H22            3.9553     2.0445     2.1161 H       
  23 H23            4.7146     0.7127     1.2117 H       
  24 H24            5.4635     2.3274     1.2142 H       
  25 H25            3.9169     2.0689    -2.1621 H       
  26 H26            5.4411     2.3416    -1.2842 H       
  27 H27            4.6921     0.7269    -1.2867 H       
  28 H28           -2.2948     0.1872     1.6499 H       
  29 H29           -0.9415    -2.1449    -1.6429 H       
  30 H30           -3.3436    -4.2042    -0.6453 H       
  31 H31           -4.6319    -3.0432    -1.0462 H       
  32 H32           -3.2970    -3.3214    -2.1903 H       
  33 H33            1.7367     4.2669     0.0098 H       
@<TRIPOS>BOND
   1    1    2 ar
   2    1    6 ar
   3    1   18 1
   4    2    3 ar
   5    2   10 1
   6    3    4 ar
   7    3   19 1
   8    4    5 ar
   9    4   20 1
  10    5    6 ar
  11    5    7 1
  12    6   16 1
  13    7    8 1
  14    7    9 1
  15    7   21 1
  16    8   22 1
  17    8   23 1
  18    8   24 1
  19    9   25 1
  20    9   26 1
  21    9   27 1
  22   10   11 1
  23   10   12 1
  24   11   14 2
  25   11   28 1
  26   12   13 2
  27   12   29 1
  28   13   14 1
  29   13   15 1
  30   15   30 1
  31   15   31 1
  32   15   32 1
  33   16   17 2
  34   16   33 1
  35   17   18 1

#	End of record

