#	Name: ASD04590007
#	Creating user name:	WinNT
#	Creation time:	15. 06. 2019 20:50

#	Modifying user name:	WinNT
#	Modification time:	15. 06. 2019 20:50

#	Program:	/corina/corina34_cracker 3.40 0067  02.08.2006

@<TRIPOS>MOLECULE
ASD04590007
  54   58    0    0    0
SMALL
NO_CHARGES


@<TRIPOS>ATOM
   1 C1            -0.0170     1.4006     0.0097 C.ar    
   2 C2             0.0021    -0.0041     0.0020 C.ar    
   3 C3            -1.1880    -0.7214     0.0095 C.ar    
   4 C4            -2.4012    -0.0439     0.0247 C.ar    
   5 C5            -2.4285     1.3606     0.0325 C.ar    
   6 C6            -1.2342     2.0745     0.0198 C.ar    
   7 C7            -3.8086    -0.4882     0.0356 C.ar    
   8 C8            -4.5948     0.6768     0.0494 C.ar    
   9 N9            -3.7541     1.7701     0.0474 N.pl3   
  10 C10           -4.4139    -1.7371     0.0346 C.ar    
  11 C11           -5.8061    -1.8264     0.0473 C.ar    
  12 C12           -6.5804    -0.6594     0.0609 C.ar    
  13 C13           -5.9850     0.5676     0.0616 C.ar    
  14 C14           -6.4613    -3.1474     0.0458 C.2     
  15 O15           -5.7887    -4.1592     0.0335 O.2     
  16 N16            1.2944     1.8538    -0.0003 N.pl3   
  17 C17            2.1708     0.7890    -0.0145 C.ar    
  18 C18            1.4234    -0.4015    -0.0137 C.ar    
  19 C19            3.5638     0.7259    -0.0282 C.ar    
  20 C20            4.1994    -0.4808    -0.0411 C.ar    
  21 C21            3.4640    -1.6728    -0.0404 C.ar    
  22 C22            2.0697    -1.6297    -0.0268 C.ar    
  23 C23            4.1626    -2.9714    -0.0551 C.2     
  24 O24            3.5237    -4.0049    -0.0545 O.2     
  25 O25           -7.8061    -3.2325     0.0581 O.3     
  26 C26           -9.9087    -4.4609     0.0709 C.3     
  27 C27           -8.3823    -4.5652     0.0558 C.3     
  28 O28           -1.2567     3.4350     0.0278 O.3     
  29 C29           -1.2496     4.0764     1.3048 C.3     
  30 O30            5.5094    -3.0118    -0.0692 O.3     
  31 C31            7.6514    -4.1698    -0.0980 C.3     
  32 C32            6.1294    -4.3247    -0.0832 C.3     
  33 H33           -1.1702    -1.8012     0.0032 H       
  34 H34           -4.0479     2.6945     0.0556 H       
  35 H35           -3.8115    -2.6335     0.0236 H       
  36 H36           -7.6579    -0.7318     0.0704 H       
  37 H37           -6.5936     1.4597     0.0725 H       
  38 H38            1.5575     2.7874     0.0019 H       
  39 H39            4.1426     1.6377    -0.0289 H       
  40 H40            5.2787    -0.5174    -0.0524 H       
  41 H41            1.4973    -2.5455    -0.0264 H       
  42 H42          -10.3413    -5.4614     0.0692 H       
  43 H43          -10.2277    -3.9287     0.9671 H       
  44 H44          -10.2446    -3.9183    -0.8128 H       
  45 H45           -8.0634    -5.0975    -0.8404 H       
  46 H46           -8.0465    -5.1078     0.9395 H       
  47 H47           -1.2694     5.1577     1.1683 H       
  48 H48           -2.1267     3.7657     1.8724 H       
  49 H49           -0.3472     3.7952     1.8476 H       
  50 H50            7.9517    -3.6168    -0.9880 H       
  51 H51            7.9701    -3.6270     0.7919 H       
  52 H52            8.1168    -5.1554    -0.1085 H       
  53 H53            5.8291    -4.8778     0.8068 H       
  54 H54            5.8107    -4.8675    -0.9731 H       
@<TRIPOS>BOND
   1    1    2 ar
   2    1   16 1
   3    1    6 ar
   4    2    3 ar
   5    2   18 1
   6    3    4 ar
   7    3   33 1
   8    4    5 ar
   9    4    7 1
  10    5    6 ar
  11    5    9 1
  12    6   28 1
  13    7    8 ar
  14    7   10 ar
  15    8    9 1
  16    8   13 ar
  17    9   34 1
  18   10   11 ar
  19   10   35 1
  20   11   12 ar
  21   11   14 1
  22   12   13 ar
  23   12   36 1
  24   13   37 1
  25   14   15 2
  26   14   25 1
  27   16   17 1
  28   16   38 1
  29   17   18 ar
  30   17   19 ar
  31   18   22 ar
  32   19   20 ar
  33   19   39 1
  34   20   21 ar
  35   20   40 1
  36   21   22 ar
  37   21   23 1
  38   22   41 1
  39   23   24 2
  40   23   30 1
  41   25   27 1
  42   26   27 1
  43   26   42 1
  44   26   43 1
  45   26   44 1
  46   27   45 1
  47   27   46 1
  48   28   29 1
  49   29   47 1
  50   29   48 1
  51   29   49 1
  52   30   32 1
  53   31   32 1
  54   31   50 1
  55   31   51 1
  56   31   52 1
  57   32   53 1
  58   32   54 1

#	End of record

