#	Name: ASD03430221
#	Creating user name:	WinNT
#	Creation time:	15. 06. 2019 20:40

#	Modifying user name:	WinNT
#	Modification time:	15. 06. 2019 20:40

#	Program:	/corina/corina34_cracker 3.40 0067  02.08.2006

@<TRIPOS>MOLECULE
ASD03430221
  67   73    0    0    0
SMALL
NO_CHARGES


@<TRIPOS>ATOM
   1 C1            -0.0757     1.3500     0.1408 C.ar    
   2 C2            -0.0475    -0.0266     0.1065 C.ar    
   3 C3             1.1592    -0.6944     0.1021 C.ar    
   4 C4             2.3564     0.0158     0.1410 C.ar    
   5 C5             2.3194     1.4049     0.1648 C.ar    
   6 C6             1.1058     2.0819     0.1618 C.ar    
   7 O7             3.4278    -0.8270     0.1629 O.3     
   8 C8             1.5253    -2.1528     0.0485 C.3     
   9 C9             3.0199    -2.1277    -0.3019 C.3     
  10 C10            0.4015    -3.9036     1.0448 C.ar    
  11 C11            1.2682    -2.8565     1.3482 C.ar    
  12 C12            0.7255    -2.9047    -0.9760 C.2     
  13 N13            0.1048    -3.9055    -0.3199 N.am    
  14 O14            0.6524    -2.6596    -2.1616 O.2     
  15 C15            1.7005    -2.6571     2.6398 C.ar    
  16 C16            1.2755    -3.5004     3.6514 C.ar    
  17 C17            0.4148    -4.5431     3.3619 C.ar    
  18 C18           -0.0217    -4.7469     2.0692 C.ar    
  19 C19           -1.2176     2.3467     0.1724 C.3     
  20 C20           -0.4968     3.6456     0.6048 C.3     
  21 O21            0.8539     3.4206     0.1665 O.3     
  22 C22           -0.7779    -4.8816    -0.9636 C.3     
  23 C23           -2.1945    -4.3679    -0.9432 C.ar    
  24 C24           -2.6631    -3.5991    -1.9888 C.ar    
  25 C25           -3.0240    -4.6729     0.1210 C.ar    
  26 C26           -4.3263    -4.2056     0.1473 C.ar    
  27 C27           -4.8056    -3.4314    -0.8888 C.ar    
  28 C28           -3.9753    -3.1242    -1.9683 C.ar    
  29 C29           -4.4820    -2.2947    -3.0819 C.2     
  30 O30           -3.7568    -2.0288    -4.0206 O.2     
  31 N31           -5.7480    -1.8332    -3.0565 N.am    
  32 C32           -6.2017    -0.9801    -4.0676 C.ar    
  33 C33           -5.6096    -1.0127    -5.3233 C.ar    
  34 C34           -6.0600    -0.1687    -6.3197 C.ar    
  35 C35           -7.0988     0.7082    -6.0678 C.ar    
  36 C36           -7.6907     0.7432    -4.8182 C.ar    
  37 C37           -7.2493    -0.1022    -3.8196 C.ar    
  38 C38           -7.8950    -0.0637    -2.4585 C.3     
  39 C39           -7.5870     1.6282    -7.1569 C.3     
  40 H40           -0.9722    -0.5842     0.0833 H       
  41 H41            3.2432     1.9639     0.1866 H       
  42 H42            3.1667    -2.2177    -1.3782 H       
  43 H43            3.5554    -2.9142     0.2299 H       
  44 H44            2.3724    -1.8419     2.8639 H       
  45 H45            1.6156    -3.3447     4.6646 H       
  46 H46            0.0829    -5.2011     4.1513 H       
  47 H47           -0.6938    -5.5636     1.8507 H       
  48 H48           -1.6638     2.4593    -0.8157 H       
  49 H49           -1.9687     2.0553     0.9065 H       
  50 H50           -0.9268     4.5117     0.1017 H       
  51 H51           -0.5364     3.7673     1.6872 H       
  52 H52           -0.4611    -5.0329    -1.9955 H       
  53 H53           -0.7269    -5.8280    -0.4253 H       
  54 H54           -2.0157    -3.3651    -2.8210 H       
  55 H55           -2.6537    -5.2788     0.9348 H       
  56 H56           -4.9690    -4.4480     0.9808 H       
  57 H57           -5.8221    -3.0673    -0.8670 H       
  58 H58           -6.3446    -2.0927    -2.3370 H       
  59 H59           -4.7976    -1.6970    -5.5205 H       
  60 H60           -5.5999    -0.1936    -7.2965 H       
  61 H61           -8.5019     1.4294    -4.6247 H       
  62 H62           -8.7290    -0.7650    -2.4321 H       
  63 H63           -7.1625    -0.3416    -1.7008 H       
  64 H64           -8.2607     0.9434    -2.2582 H       
  65 H65           -8.3801     1.1361    -7.7198 H       
  66 H66           -7.9726     2.5455    -6.7120 H       
  67 H67           -6.7613     1.8685    -7.8268 H       
@<TRIPOS>BOND
   1    1    2 ar
   2    1    6 ar
   3    1   19 1
   4    2    3 ar
   5    2   40 1
   6    3    4 ar
   7    3    8 1
   8    4    5 ar
   9    4    7 1
  10    5    6 ar
  11    5   41 1
  12    6   21 1
  13    7    9 1
  14    8    9 1
  15    8   11 1
  16    8   12 1
  17    9   42 1
  18    9   43 1
  19   10   11 ar
  20   10   13 1
  21   10   18 ar
  22   11   15 ar
  23   12   13 am
  24   12   14 2
  25   13   22 1
  26   15   16 ar
  27   15   44 1
  28   16   17 ar
  29   16   45 1
  30   17   18 ar
  31   17   46 1
  32   18   47 1
  33   19   20 1
  34   19   48 1
  35   19   49 1
  36   20   21 1
  37   20   50 1
  38   20   51 1
  39   22   23 1
  40   22   52 1
  41   22   53 1
  42   23   24 ar
  43   23   25 ar
  44   24   28 ar
  45   24   54 1
  46   25   26 ar
  47   25   55 1
  48   26   27 ar
  49   26   56 1
  50   27   28 ar
  51   27   57 1
  52   28   29 1
  53   29   30 2
  54   29   31 am
  55   31   32 1
  56   31   58 1
  57   32   33 ar
  58   32   37 ar
  59   33   34 ar
  60   33   59 1
  61   34   35 ar
  62   34   60 1
  63   35   36 ar
  64   35   39 1
  65   36   37 ar
  66   36   61 1
  67   37   38 1
  68   38   62 1
  69   38   63 1
  70   38   64 1
  71   39   65 1
  72   39   66 1
  73   39   67 1

#	End of record

