#	Name: ASD01901467
#	Creating user name:	WinNT
#	Creation time:	15. 06. 2019 19:53

#	Modifying user name:	WinNT
#	Modification time:	15. 06. 2019 19:53

#	Program:	/corina/corina34_cracker 3.40 0067  02.08.2006

@<TRIPOS>MOLECULE
ASD01901467
  40   43    0    0    0
SMALL
NO_CHARGES


@<TRIPOS>ATOM
   1 C1            -0.0168     1.3889     0.0097 C.ar    
   2 C2             1.1700     2.0932     0.0021 C.ar    
   3 C3             2.3788     1.4169    -0.0130 C.ar    
   4 C4             2.4022     0.0316    -0.0212 C.ar    
   5 C5             1.2204    -0.6803    -0.0142 C.ar    
   6 C6             0.0021    -0.0041     0.0020 C.ar    
   7 C7            -1.2718    -0.7657     0.0106 C.2     
   8 N8            -3.1806    -1.5350    -1.1466 N.2     
   9 C9            -2.0566    -0.8613    -1.1592 C.2     
  10 C10           -1.6989    -1.3891     1.1495 C.2     
  11 N11           -2.8736    -2.0808     1.1228 N.pl3   
  12 C12           -3.6099    -2.1458    -0.0320 C.2     
  13 C13           -3.5512    -2.7933     2.0752 C.2     
  14 C14           -4.6705    -3.2714     1.4912 C.2     
  15 N15           -4.6916    -2.8704     0.2167 N.2     
  16 C16           -5.7213    -4.1160     2.1646 C.3     
  17 O17           -5.3530    -4.3377     3.5274 O.3     
  18 C18           -6.1989    -5.0858     4.2805 C.ar    
  19 C19           -7.3656    -5.6113     3.7335 C.ar    
  20 C20           -5.9179    -5.3517     5.6190 C.ar    
  21 C21           -6.8016    -6.1159     6.3520 C.ar    
  22 N22           -7.9017    -6.5939     5.8012 N.ar    
  23 C23           -8.2013    -6.3684     4.5339 C.ar    
  24 C24           -1.3313     2.1256     0.0325 C.3     
  25 F25            3.5384     2.1102    -0.0204 F       
  26 F26           -9.3368    -6.8839     4.0143 F       
  27 H27            1.1563     3.1731     0.0077 H       
  28 H28            3.3469    -0.4918    -0.0334 H       
  29 H29            1.2395    -1.7601    -0.0212 H       
  30 H30           -1.7295    -0.3772    -2.0675 H       
  31 H31           -1.1148    -1.3350     2.0563 H       
  32 H32           -3.2477    -2.9443     3.1006 H       
  33 H33           -6.6809    -3.6004     2.1269 H       
  34 H34           -5.8028    -5.0733     1.6499 H       
  35 H35           -7.6151    -5.4300     2.6985 H       
  36 H36           -5.0194    -4.9647     6.0765 H       
  37 H37           -6.5905    -6.3262     7.3901 H       
  38 H38           -1.6334     2.2978     1.0655 H       
  39 H39           -1.2205     3.0823    -0.4779 H       
  40 H40           -2.0907     1.5296    -0.4737 H       
@<TRIPOS>BOND
   1    1    6 ar
   2    1    2 ar
   3    1   24 1
   4    2    3 ar
   5    2   27 1
   6    3    4 ar
   7    3   25 1
   8    4    5 ar
   9    4   28 1
  10    5    6 ar
  11    5   29 1
  12    6    7 1
  13    7   10 2
  14    7    9 1
  15    8    9 2
  16    8   12 1
  17    9   30 1
  18   10   11 1
  19   10   31 1
  20   11   13 1
  21   11   12 1
  22   12   15 2
  23   13   14 2
  24   13   32 1
  25   14   15 1
  26   14   16 1
  27   16   17 1
  28   16   33 1
  29   16   34 1
  30   17   18 1
  31   18   20 ar
  32   18   19 ar
  33   19   23 ar
  34   19   35 1
  35   20   21 ar
  36   20   36 1
  37   21   22 ar
  38   21   37 1
  39   22   23 ar
  40   23   26 1
  41   24   38 1
  42   24   39 1
  43   24   40 1

#	End of record

