#	Name: ASD07301383
#	Creating user name:	WinNT
#	Creation time:	15. 06. 2019 21:11

#	Modifying user name:	WinNT
#	Modification time:	15. 06. 2019 21:11

#	Program:	/corina/corina34_cracker 3.40 0067  02.08.2006

@<TRIPOS>MOLECULE
ASD07301383
  35   36    0    0    0
SMALL
NO_CHARGES


@<TRIPOS>ATOM
   1 C1            -0.0178     1.4650     0.0101 C.2     
   2 C2             0.0021    -0.0041     0.0020 C.2     
   3 C3             1.2770    -0.6367    -0.0136 C.2     
   4 C4             2.3783     0.1589    -0.0198 C.2     
   5 N5             2.2581     1.5098    -0.0114 N.pl3   
   6 N6             1.1290     2.1160     0.0026 N.2     
   7 C7            -1.2973     2.1983     0.0202 C.2     
   8 O8            -2.3476     1.5875     0.0218 O.2     
   9 O9            -1.3015     3.5459     0.0275 O.3     
  10 O10           -1.0316    -0.6549     0.0088 O.2     
  11 O11            1.3890    -1.9916    -0.0215 O.3     
  12 C12            2.7112    -2.5332    -0.0370 C.3     
  13 C13            3.4255     2.2804    -0.0184 C.ar    
  14 C14            3.6374     3.2377     0.9729 C.ar    
  15 C15            4.7962     3.9975     0.9605 C.ar    
  16 C16            5.7382     3.8058    -0.0328 C.ar    
  17 C17            5.5288     2.8565    -1.0164 C.ar    
  18 C18            4.3791     2.0903    -1.0089 C.ar    
  19 O19            2.7099     3.4255     1.9482 O.3     
  20 C20            2.9944     4.4236     2.9305 C.3     
  21 F21            4.1802     4.0971     3.5973 F       
  22 F22            3.1384     5.6664     2.3044 F       
  23 C23           -2.5973     4.2010     0.0372 C.3     
  24 H24            3.3608    -0.2895    -0.0312 H       
  25 H25            3.2336    -2.1910    -0.9304 H       
  26 H26            3.2509    -2.1999     0.8494 H       
  27 H27            2.6579    -3.6219    -0.0420 H       
  28 H28            4.9633     4.7398     1.7270 H       
  29 H29            6.6403     4.3995    -0.0410 H       
  30 H30            6.2680     2.7107    -1.7902 H       
  31 H31            4.2204     1.3469    -1.7761 H       
  32 H32            2.1753     4.4710     3.6481 H       
  33 H33           -3.1576     3.9112    -0.8517 H       
  34 H34           -3.1491     3.9016     0.9282 H       
  35 H35           -2.4578     5.2821     0.0424 H       
@<TRIPOS>BOND
   1    1    2 1
   2    1    6 2
   3    1    7 1
   4    2    3 1
   5    2   10 2
   6    3    4 2
   7    3   11 1
   8    4    5 1
   9    4   24 1
  10    5    6 1
  11    5   13 1
  12    7    8 2
  13    7    9 1
  14    9   23 1
  15   11   12 1
  16   12   25 1
  17   12   26 1
  18   12   27 1
  19   13   14 ar
  20   13   18 ar
  21   14   15 ar
  22   14   19 1
  23   15   16 ar
  24   15   28 1
  25   16   17 ar
  26   16   29 1
  27   17   18 ar
  28   17   30 1
  29   18   31 1
  30   19   20 1
  31   20   21 1
  32   20   22 1
  33   20   32 1
  34   23   33 1
  35   23   34 1
  36   23   35 1

#	End of record

