#	Name: ASD02030151
#	Creating user name:	WinNT
#	Creation time:	15. 06. 2019 20:14

#	Modifying user name:	WinNT
#	Modification time:	15. 06. 2019 20:14

#	Program:	/corina/corina34_cracker 3.40 0067  02.08.2006

@<TRIPOS>MOLECULE
ASD02030151
  52   55    0    0    0
SMALL
NO_CHARGES


@<TRIPOS>ATOM
   1 N1            -0.2114     1.4220    -0.1397 N.am    
   2 C2            -0.0214    -0.0116     0.1222 C.3     
   3 C3            -0.9185    -0.4181     1.2980 C.3     
   4 N4            -2.2774     0.0820     1.0467 N.am    
   5 C5            -2.4673     1.5156     0.7848 C.3     
   6 C6            -1.5710     1.9230    -0.3854 C.3     
   7 C7             0.8417     2.2631    -0.1487 C.2     
   8 C8             2.1840     1.7709     0.2274 C.2     
   9 N9             3.2628     2.5078     0.3826 N.2     
  10 N10            2.5164     0.4911     0.4771 N.2     
  11 C11            3.7908     0.4711     0.7742 C.2     
  12 N12            4.2440     1.7399     0.7111 N.pl3   
  13 O13            0.6877     3.4263    -0.4662 O.2     
  14 C14           -3.3305    -0.7590     1.0558 C.2     
  15 C15           -4.7025    -0.2273     0.9117 C.ar    
  16 O16           -3.1522    -1.9547     1.1824 O.2     
  17 C17           -1.5440     3.4481    -0.5049 C.3     
  18 C18           -2.1088     1.3124    -1.6811 C.3     
  19 C19           -5.6738    -0.9684     0.2372 C.ar    
  20 C20            5.5598     2.1532     0.9601 C.ar    
  21 C21            5.8978     3.4962     0.8605 C.ar    
  22 C22            7.1954     3.9003     1.1065 C.ar    
  23 C23            8.1576     2.9689     1.4512 C.ar    
  24 C24            7.8241     1.6307     1.5512 C.ar    
  25 C25            6.5268     1.2211     1.3124 C.ar    
  26 C26           -6.9535    -0.4665     0.1058 C.ar    
  27 C27           -7.2738     0.7692     0.6416 C.ar    
  28 C28           -6.3144     1.5093     1.3115 C.ar    
  29 C29           -5.0330     1.0152     1.4547 C.ar    
  30 Cl30          -6.7254     3.0580     1.9795 Cl      
  31 Cl31          -8.1630    -1.3866    -0.7334 Cl      
  32 H32           -0.2966    -0.5848    -0.7631 H       
  33 H33            1.0216    -0.2023     0.3749 H       
  34 H34           -0.9386    -1.5045     1.3842 H       
  35 H35           -0.5330     0.0175     2.2198 H       
  36 H36           -3.5104     1.7063     0.5321 H       
  37 H37           -2.1922     2.0888     1.6701 H       
  38 H38            4.3732    -0.4025     1.0273 H       
  39 H39           -1.0479     3.8722     0.3681 H       
  40 H40           -1.0001     3.7324    -1.4057 H       
  41 H41           -2.5647     3.8262    -0.5622 H       
  42 H42           -3.1223     1.6721    -1.8590 H       
  43 H43           -1.4684     1.6041    -2.5135 H       
  44 H44           -2.1190     0.2259    -1.5939 H       
  45 H45           -5.4251    -1.9324    -0.1815 H       
  46 H46            5.1469     4.2240     0.5906 H       
  47 H47            7.4589     4.9448     1.0292 H       
  48 H48            9.1717     3.2873     1.6424 H       
  49 H49            8.5777     0.9055     1.8206 H       
  50 H50            6.2668     0.1758     1.3910 H       
  51 H51           -8.2761     1.1577     0.5364 H       
  52 H52           -4.2854     1.5933     1.9774 H       
@<TRIPOS>BOND
   1    1    2 1
   2    1    7 am
   3    1    6 1
   4    2    3 1
   5    2   32 1
   6    2   33 1
   7    3    4 1
   8    3   34 1
   9    3   35 1
  10    4    5 1
  11    4   14 am
  12    5    6 1
  13    5   36 1
  14    5   37 1
  15    6   17 1
  16    6   18 1
  17    7    8 1
  18    7   13 2
  19    8    9 2
  20    8   10 1
  21    9   12 1
  22   10   11 2
  23   11   12 1
  24   11   38 1
  25   12   20 1
  26   14   15 1
  27   14   16 2
  28   15   19 ar
  29   15   29 ar
  30   17   39 1
  31   17   40 1
  32   17   41 1
  33   18   42 1
  34   18   43 1
  35   18   44 1
  36   19   26 ar
  37   19   45 1
  38   20   21 ar
  39   20   25 ar
  40   21   22 ar
  41   21   46 1
  42   22   23 ar
  43   22   47 1
  44   23   24 ar
  45   23   48 1
  46   24   25 ar
  47   24   49 1
  48   25   50 1
  49   26   27 ar
  50   26   31 1
  51   27   28 ar
  52   27   51 1
  53   28   29 ar
  54   28   30 1
  55   29   52 1

#	End of record

