#	Name: ASD07931863
#	Creating user name:	WinNT
#	Creation time:	15. 06. 2019 21:13

#	Modifying user name:	WinNT
#	Modification time:	15. 06. 2019 21:13

#	Program:	/corina/corina34_cracker 3.40 0067  02.08.2006

@<TRIPOS>MOLECULE
ASD07931863
  63   66    0    0    0
SMALL
NO_CHARGES


@<TRIPOS>ATOM
   1 C1            -0.0038     1.3791     0.0446 C.2     
   2 C2            -0.0085     0.0166     0.0524 C.2     
   3 C3             1.1930    -0.7005     0.0023 C.2     
   4 C4             2.3787    -0.0206    -0.0548 C.2     
   5 C5             2.3542     1.4433    -0.0618 C.2     
   6 N6             1.1699     2.0853    -0.0121 N.am    
   7 C7            -1.2861     2.1080     0.0920 C.2     
   8 O8            -1.2934     3.3191     0.1992 O.2     
   9 N9            -2.4492     1.4312     0.0165 N.am    
  10 C10           -3.7222     2.1548     0.0635 C.3     
  11 C11           -4.0839     2.6423    -1.3409 C.3     
  12 O12           -4.9414     0.0615    -0.2720 O.3     
  13 C13           -4.8203     1.2221     0.5783 C.3     
  14 C14           -4.4280     0.6237     1.9532 C.3     
  15 C15           -5.2583    -0.6825     1.9872 C.3     
  16 C16           -5.5796    -0.9645     0.5067 C.3     
  17 C17           -5.0408    -2.3159     0.1138 C.ar    
  18 C18           -5.8897    -3.4045     0.0429 C.ar    
  19 C19           -5.3954    -4.6441    -0.3175 C.ar    
  20 C20           -4.0522    -4.7950    -0.6074 C.ar    
  21 C21           -3.2035    -3.7062    -0.5374 C.ar    
  22 C22           -3.6986    -2.4656    -0.1812 C.ar    
  23 C23           -3.5132    -6.1466    -0.9993 C.3     
  24 F24           -3.5896    -6.2943    -2.3884 F       
  25 F25           -2.1790    -6.2526    -0.5918 F       
  26 F26           -4.2704    -7.1477    -0.3816 F       
  27 O27            3.3953     2.0758    -0.1118 O.2     
  28 C28            4.4783    -0.7149    -1.1360 C.2     
  29 N29            5.4892    -1.4742    -0.8126 N.2     
  30 C30            5.2929    -1.9768     0.4156 C.2     
  31 C31            4.1153    -1.5141     0.8763 C.2     
  32 N32            3.5927    -0.7115    -0.1051 N.pl3   
  33 C33            6.2283    -2.9006     1.1522 C.3     
  34 C34            1.1368     3.5499    -0.0192 C.3     
  35 C35            1.0282     4.0646     1.4176 C.3     
  36 O36            2.2118     3.7167     2.1389 O.3     
  37 H37           -0.9475    -0.5150     0.0980 H       
  38 H38            1.1838    -1.7805     0.0091 H       
  39 H39           -2.4434     0.4650    -0.0690 H       
  40 H40           -3.6292     3.0105     0.7324 H       
  41 H41           -5.0310     3.1807    -1.3059 H       
  42 H42           -3.3016     3.3068    -1.7076 H       
  43 H43           -4.1769     1.7866    -2.0097 H       
  44 H44           -5.7721     1.7489     0.6464 H       
  45 H45           -3.3605     0.4071     1.9929 H       
  46 H46           -4.7187     1.2906     2.7649 H       
  47 H47           -4.6713    -1.4968     2.4120 H       
  48 H48           -6.1767    -0.5360     2.5557 H       
  49 H49           -6.6577    -0.9329     0.3489 H       
  50 H50           -6.9391    -3.2866     0.2694 H       
  51 H51           -6.0585    -5.4948    -0.3722 H       
  52 H52           -2.1540    -3.8241    -0.7636 H       
  53 H53           -3.0362    -1.6142    -0.1301 H       
  54 H54            4.3664    -0.1759    -2.0652 H       
  55 H55            3.6681    -1.7332     1.8346 H       
  56 H56            6.9332    -2.3117     1.7390 H       
  57 H57            5.6533    -3.5463     1.8161 H       
  58 H58            6.7750    -3.5121     0.4344 H       
  59 H59            2.0509     3.9318    -0.4738 H       
  60 H60            0.2755     3.8911    -0.5934 H       
  61 H61            0.9143     5.1485     1.4076 H       
  62 H62            0.1621     3.6126     1.9009 H       
  63 H63            2.2123     4.0121     3.0597 H       
@<TRIPOS>BOND
   1    1    2 2
   2    1    6 1
   3    1    7 1
   4    2    3 1
   5    2   37 1
   6    3    4 2
   7    3   38 1
   8    4    5 1
   9    4   32 1
  10    5    6 am
  11    5   27 2
  12    6   34 1
  13    7    8 2
  14    7    9 am
  15    9   10 1
  16    9   39 1
  17   10   11 1
  18   10   13 1
  19   10   40 1
  20   11   41 1
  21   11   42 1
  22   11   43 1
  23   12   16 1
  24   12   13 1
  25   13   14 1
  26   13   44 1
  27   14   15 1
  28   14   45 1
  29   14   46 1
  30   15   16 1
  31   15   47 1
  32   15   48 1
  33   16   17 1
  34   16   49 1
  35   17   18 ar
  36   17   22 ar
  37   18   19 ar
  38   18   50 1
  39   19   20 ar
  40   19   51 1
  41   20   21 ar
  42   20   23 1
  43   21   22 ar
  44   21   52 1
  45   22   53 1
  46   23   24 1
  47   23   25 1
  48   23   26 1
  49   28   29 2
  50   28   32 1
  51   28   54 1
  52   29   30 1
  53   30   31 2
  54   30   33 1
  55   31   32 1
  56   31   55 1
  57   33   56 1
  58   33   57 1
  59   33   58 1
  60   34   35 1
  61   34   59 1
  62   34   60 1
  63   35   36 1
  64   35   61 1
  65   35   62 1
  66   36   63 1

#	End of record

