#	Name: ASD00110048
#	Creating user name:	WinNT
#	Creation time:	15. 06. 2019 18:30

#	Modifying user name:	WinNT
#	Modification time:	15. 06. 2019 18:30

#	Program:	/corina/corina34_cracker 3.40 0067  02.08.2006

@<TRIPOS>MOLECULE
ASD00110048
  61   63    0    0    0
SMALL
NO_CHARGES


@<TRIPOS>ATOM
   1 C1             0.4139     1.4380    -0.3089 C.3     
   2 S2             0.4447    -0.3670    -0.1315 S.3     
   3 C3             1.1986    -0.6038     1.5013 C.3     
   4 H4             2.1148    -0.0171     1.5672 H       
   5 O5             0.2854    -0.1769     2.5142 O.3     
   6 C6             0.7923    -0.2971     3.8450 C.3     
   7 H7             0.0466     0.0662     4.5521 H       
   8 C8             2.0709     0.5322     3.9807 C.3     
   9 H9             2.7911     0.2157     3.2262 H       
  10 N10            2.6424     0.3335     5.3150 N.am    
  11 C11            3.9616     0.5208     5.5177 C.2     
  12 O12            4.6772     0.8546     4.5936 O.2     
  13 C13            4.5383     0.3203     6.8642 C.ar    
  14 C14            3.8207     0.7034     7.9982 C.ar    
  15 C15            4.3645     0.5131     9.2519 C.ar    
  16 C16            5.6184    -0.0557     9.3863 C.ar    
  17 C17            6.3354    -0.4374     8.2659 C.ar    
  18 C18            5.8006    -0.2584     7.0071 C.ar    
  19 C19            6.5801    -0.6808     5.7884 C.3     
  20 C20            7.8351     0.1866     5.6577 C.3     
  21 C21            8.6532    -0.2867     4.4541 C.3     
  22 N22            9.0266    -1.6950     4.6376 N.3     
  23 C23            7.8379    -2.5533     4.7183 C.3     
  24 C24            6.9954    -2.1478     5.9298 C.3     
  25 C25            1.7418     2.0131     3.7823 C.3     
  26 H26            1.3166     2.1609     2.7896 H       
  27 C27            3.0204     2.8423     3.9180 C.3     
  28 Cl28           0.5506     2.5366     5.0304 Cl      
  29 C29            1.1028    -1.7667     4.1404 C.3     
  30 H30            0.1848    -2.3516     4.0836 H       
  31 O31            1.6625    -1.8826     5.4502 O.3     
  32 C32            2.1058    -2.2866     3.1059 C.3     
  33 H33            2.2887    -3.3475     3.2765 H       
  34 O34            3.3332    -1.5646     3.2253 O.3     
  35 C35            1.5257    -2.0858     1.7025 C.3     
  36 H36            2.2560    -2.4020     0.9577 H       
  37 O37            0.3335    -2.8612     1.5634 O.3     
  38 H38            1.4314     1.8256    -0.2570 H       
  39 H39           -0.0265     1.7012    -1.2706 H       
  40 H40           -0.1815     1.8719     0.4944 H       
  41 H41            2.0714     0.0671     6.0524 H       
  42 H42            2.8420     1.1482     7.8946 H       
  43 H43            3.8102     0.8091    10.1303 H       
  44 H44            6.0397    -0.2022    10.3698 H       
  45 H45            7.3139    -0.8806     8.3776 H       
  46 H46            5.9598    -0.5618     4.9001 H       
  47 H47            7.5449     1.2273     5.5139 H       
  48 H48            8.4351     0.0973     6.5633 H       
  49 H49            8.0575    -0.1842     3.5471 H       
  50 H50            9.5548     0.3197     4.3667 H       
  51 H51            9.6463    -2.0034     3.9035 H       
  52 H52            7.2460    -2.4402     3.8100 H       
  53 H53            8.1473    -3.5933     4.8228 H       
  54 H54            7.5822    -2.2737     6.8397 H       
  55 H55            6.1053    -2.7748     5.9804 H       
  56 H56            3.7406     2.5259     3.1635 H       
  57 H57            2.7860     3.8974     3.7766 H       
  58 H58            3.4456     2.6945     4.9107 H       
  59 H59            1.8840    -2.7889     5.7045 H       
  60 H60            4.0155    -1.8425     2.5989 H       
  61 H61           -0.0911    -2.7780     0.6985 H       
@<TRIPOS>BOND
   1    1    2 1
   2    1   38 1
   3    1   39 1
   4    1   40 1
   5    2    3 1
   6    3    4 1
   7    3   35 1
   8    3    5 1
   9    5    6 1
  10    6    7 1
  11    6    8 1
  12    6   29 1
  13    8    9 1
  14    8   10 1
  15    8   25 1
  16   10   11 am
  17   10   41 1
  18   11   12 2
  19   11   13 1
  20   13   18 ar
  21   13   14 ar
  22   14   15 ar
  23   14   42 1
  24   15   16 ar
  25   15   43 1
  26   16   17 ar
  27   16   44 1
  28   17   18 ar
  29   17   45 1
  30   18   19 1
  31   19   24 1
  32   19   20 1
  33   19   46 1
  34   20   21 1
  35   20   47 1
  36   20   48 1
  37   21   22 1
  38   21   49 1
  39   21   50 1
  40   22   23 1
  41   22   51 1
  42   23   24 1
  43   23   52 1
  44   23   53 1
  45   24   54 1
  46   24   55 1
  47   25   26 1
  48   25   27 1
  49   25   28 1
  50   27   56 1
  51   27   57 1
  52   27   58 1
  53   29   30 1
  54   29   31 1
  55   29   32 1
  56   31   59 1
  57   32   33 1
  58   32   34 1
  59   32   35 1
  60   34   60 1
  61   35   36 1
  62   35   37 1
  63   37   61 1

#	End of record

