#	Name: ASD07930083
#	Creating user name:	WinNT
#	Creation time:	15. 06. 2019 21:11

#	Modifying user name:	WinNT
#	Modification time:	15. 06. 2019 21:11

#	Program:	/corina/corina34_cracker 3.40 0067  02.08.2006

@<TRIPOS>MOLECULE
ASD07930083
  27   27    0    0    0
SMALL
NO_CHARGES


@<TRIPOS>ATOM
   1 C1            -0.0164     1.3588     0.0095 C.2     
   2 C2             0.0021    -0.0041     0.0020 C.2     
   3 C3             1.2166    -0.7004    -0.0129 C.2     
   4 C4             2.3918    -0.0002    -0.0204 C.2     
   5 C5             2.3429     1.4635    -0.0126 C.2     
   6 N6             1.1469     2.0854     0.0023 N.am    
   7 C7            -1.3106     2.0650     0.0195 C.2     
   8 O8            -2.3479     1.4322     0.0209 O.2     
   9 O9            -1.3431     3.4125     0.0269 O.3     
  10 O10            3.3742     2.1136    -0.0186 O.2     
  11 C11            4.0968    -1.4578    -1.0336 C.2     
  12 N12            5.2711    -1.9060    -0.6824 N.2     
  13 C13            5.5833    -1.4309     0.5327 C.2     
  14 C14            4.5660    -0.6571     0.9561 C.2     
  15 N15            3.6180    -0.6701    -0.0349 N.pl3   
  16 C16            6.8532    -1.7147     1.2928 C.3     
  17 H17           -0.9287    -0.5518     0.0080 H       
  18 H18            1.2257    -1.7803    -0.0181 H       
  19 H19            1.1088     3.0546     0.0079 H       
  20 H20           -2.2150     3.8306     0.0333 H       
  21 H21            3.5921    -1.6729    -1.9639 H       
  22 H22            4.5074    -0.1283     1.8960 H       
  23 H23            7.6022    -0.9634     1.0423 H       
  24 H24            6.6507    -1.6829     2.3634 H       
  25 H25            7.2252    -2.7029     1.0226 H       
  26 Br26          12.6022     8.8306     7.3634 Br      
  27 H27           12.6022    10.3406     7.3634 H       
@<TRIPOS>BOND
   1    1    2 2
   2    1    6 1
   3    1    7 1
   4    2    3 1
   5    2   17 1
   6    3    4 2
   7    3   18 1
   8    4    5 1
   9    4   15 1
  10    5    6 am
  11    5   10 2
  12    6   19 1
  13    7    8 2
  14    7    9 1
  15    9   20 1
  16   11   12 2
  17   11   15 1
  18   11   21 1
  19   12   13 1
  20   13   14 2
  21   13   16 1
  22   14   15 1
  23   14   22 1
  24   16   23 1
  25   16   24 1
  26   16   25 1
  27   26   27 1

#	End of record

