#	Name: ASD01470017
#	Creating user name:	WinNT
#	Creation time:	15. 06. 2019 19:21

#	Modifying user name:	WinNT
#	Modification time:	15. 06. 2019 19:21

#	Program:	/corina/corina34_cracker 3.40 0067  02.08.2006

@<TRIPOS>MOLECULE
ASD01470017
 151  156    0    0    0
SMALL
NO_CHARGES


@<TRIPOS>ATOM
   1 N1             0.6079    -0.2213     1.4431 N.3     
   2 C2             0.8521    -1.6500     1.2042 C.3     
   3 C3             0.6482    -1.9570    -0.2570 C.2     
   4 O4             0.6916    -1.0637    -1.0762 O.2     
   5 C5             2.2885    -1.9954     1.6023 C.3     
   6 C6             2.4955    -1.6837     3.0858 C.3     
   7 C7             2.5429    -3.4834     1.3534 C.3     
   8 C8             3.9630    -1.9107     3.4547 C.3     
   9 N9             0.4176    -3.2243    -0.6536 N.am    
  10 C10            0.2194    -3.5228    -2.0741 C.3     
  11 C11            0.5883    -4.9592    -2.3418 C.2     
  12 O12            0.6288    -5.7554    -1.4278 O.2     
  13 C13           -1.2480    -3.2958    -2.4430 C.3     
  14 C14           -2.1415    -4.1091    -1.5043 C.3     
  15 C15           -1.5842    -1.8095    -2.3064 C.3     
  16 N16            0.8731    -5.3591    -3.5970 N.am    
  17 C17            1.3378    -6.7266    -3.8424 C.3     
  18 C18            1.5836    -6.9166    -5.3170 C.2     
  19 O19            1.3898    -5.9999    -6.0872 O.2     
  20 N20            2.0189    -8.1051    -5.7800 N.am    
  21 C21            2.2579    -8.2898    -7.2136 C.3     
  22 C22            2.7359    -9.6965    -7.4660 C.2     
  23 O23            2.8643   -10.4688    -6.5397 O.2     
  24 N24            3.0207   -10.0964    -8.7212 N.am    
  25 C25            3.4854   -11.4639    -8.9666 C.3     
  26 C26            3.1548   -11.8603   -10.3824 C.2     
  27 O27            2.6944   -11.0415   -11.1496 O.2     
  28 C28            4.9995   -11.5333    -8.7578 C.3     
  29 C29            5.3188   -11.2782    -7.3073 C.ar    
  30 C30            5.3802   -12.3351    -6.4179 C.ar    
  31 C31            5.5554    -9.9883    -6.8692 C.ar    
  32 C32            5.6727   -12.1038    -5.0877 C.ar    
  33 C33            5.8492    -9.7519    -5.5402 C.ar    
  34 C34            5.9053   -10.8099    -4.6446 C.ar    
  35 O35            6.1941   -10.5800    -3.3367 O.3     
  36 N36            3.3708   -13.1247   -10.7962 N.am    
  37 C37            3.2045   -13.6176   -12.1756 C.3     
  38 C38            3.6425   -12.5678   -13.1641 C.2     
  39 O39            4.0830   -11.5091   -12.7690 O.2     
  40 C40            4.1245   -14.8606   -12.2661 C.3     
  41 C41            3.9500   -15.4808   -10.8547 C.3     
  42 C42            3.8175   -14.2393    -9.9479 C.3     
  43 N43            3.5445   -12.8053   -14.4871 N.am    
  44 C44            3.9703   -11.7848   -15.4480 C.3     
  45 C45            4.3465   -12.4457   -16.7491 C.2     
  46 O46            4.2668   -13.6505   -16.8625 O.2     
  47 C47            2.8236   -10.8009   -15.6887 C.3     
  48 C48            2.5294   -10.0511   -14.4150 C.2     
  49 C49            1.5966   -10.3638   -13.5017 C.2     
  50 C50            3.2113    -8.8465   -13.9355 C.ar    
  51 C51            2.5985    -8.5133   -12.7136 C.ar    
  52 C52            4.2517    -8.0585   -14.4306 C.ar    
  53 N53            1.6219    -9.4551   -12.4789 N.pl3   
  54 C54            3.0406    -7.3968   -12.0118 C.ar    
  55 C55            4.6703    -6.9658   -13.7247 C.ar    
  56 C56            4.0692    -6.6329   -12.5189 C.ar    
  57 N57            4.7715   -11.6978   -17.7867 N.am    
  58 C58            5.1372   -12.3403   -19.0515 C.3     
  59 C59            4.9796   -11.3539   -20.1799 C.2     
  60 O60            4.5993   -10.2254   -19.9502 O.2     
  61 C61            6.5920   -12.8092   -18.9833 C.3     
  62 C62            6.7245   -13.8852   -17.9366 C.2     
  63 C63            7.0926   -13.7136   -16.6572 C.2     
  64 C64            6.4698   -15.3160   -18.1208 C.ar    
  65 C65            6.7241   -15.9195   -16.8754 C.ar    
  66 C66            6.0652   -16.0981   -19.2040 C.ar    
  67 N67            7.1002   -14.9182   -16.0083 N.pl3   
  68 C68            6.5649   -17.2945   -16.7394 C.ar    
  69 C69            5.9180   -17.4478   -19.0488 C.ar    
  70 C70            6.1618   -18.0470   -17.8209 C.ar    
  71 N71            5.2614   -11.7259   -21.4443 N.am    
  72 C72            5.1082   -10.7670   -22.5413 C.3     
  73 C73            6.3596    -9.9359   -22.6604 C.2     
  74 O74            7.2840   -10.1249   -21.9067 O.2     
  75 C75            4.8716   -11.5231   -23.8502 C.3     
  76 C76            3.5375   -12.2684   -23.7748 C.3     
  77 S77            3.2571   -13.1648   -25.3267 S.3     
  78 C78            1.6559   -13.9708   -25.0487 C.3     
  79 H79            1.2398     0.3491     0.9014 H       
  80 H80           -0.3527     0.0187     1.2488 H       
  81 H81            0.1576    -2.2420     1.8002 H       
  82 H82            2.9831    -1.4034     1.0062 H       
  83 H83            2.2287    -0.6447     3.2795 H       
  84 H84            1.8644    -2.3389     3.6863 H       
  85 H85            1.8483    -4.0754     1.9495 H       
  86 H86            2.3954    -3.7055     0.2965 H       
  87 H87            3.5662    -3.7295     1.6370 H       
  88 H88            4.1105    -1.6886     4.5116 H       
  89 H89            4.2298    -2.9496     3.2610 H       
  90 H90            4.5941    -1.2555     2.8542 H       
  91 H91            0.3830    -3.9388     0.0016 H       
  92 H92            0.8505    -2.8676    -2.6745 H       
  93 H93           -1.4174    -3.6136    -3.4718 H       
  94 H94           -1.9722    -3.7913    -0.4755 H       
  95 H95           -3.1869    -3.9474    -1.7671 H       
  96 H96           -1.9020    -5.1680    -1.6016 H       
  97 H97           -0.8664    -1.2207    -2.8776 H       
  98 H98           -2.5889    -1.6276    -2.6881 H       
  99 H99           -1.5367    -1.5212    -1.2563 H       
 100 H100           0.7704    -4.7415    -4.3379 H       
 101 H101           2.2640    -6.8995    -3.2944 H       
 102 H102           0.5794    -7.4338    -3.5064 H       
 103 H103           2.1739    -8.8383    -5.1641 H       
 104 H104           1.3316    -8.1170    -7.7616 H       
 105 H105           3.0162    -7.5826    -7.5495 H       
 106 H106           2.9180    -9.4788    -9.4620 H       
 107 H107           2.9915   -12.1453    -8.2738 H       
 108 H108           5.3604   -12.5221    -9.0408 H       
 109 H109           5.4863   -10.7784    -9.3752 H       
 110 H110           5.1990   -13.3421    -6.7634 H       
 111 H111           5.5109    -9.1649    -7.5666 H       
 112 H112           5.7199   -12.9296    -4.3933 H       
 113 H113           6.0339    -8.7442    -5.1985 H       
 114 H114           5.4171   -10.4132    -2.7858 H       
 115 H115           2.1666   -13.8978   -12.3557 H       
 116 H116           3.7794   -15.5466   -13.0397 H       
 117 H117           5.1602   -14.5683   -12.4391 H       
 118 H118           3.0490   -16.0927   -10.8111 H       
 119 H119           4.8279   -16.0651   -10.5789 H       
 120 H120           4.7820   -14.0007    -9.4997 H       
 121 H121           3.0806   -14.4296    -9.1675 H       
 122 H122           3.1921   -13.6520   -14.8031 H       
 123 H123           4.8319   -11.2484   -15.0505 H       
 124 H124           3.1084   -10.0946   -16.4685 H       
 125 H125           1.9346   -11.3485   -16.0016 H       
 126 H126           0.9253   -11.2074   -13.5649 H       
 127 H127           4.7245    -8.3117   -15.3681 H       
 128 H128           1.0400    -9.4731   -11.7030 H       
 129 H129           2.5790    -7.1293   -11.0728 H       
 130 H130           5.4753    -6.3565   -14.1081 H       
 131 H131           4.4108    -5.7661   -11.9726 H       
 132 H132           4.8352   -10.7341   -17.6960 H       
 133 H133           4.4868   -13.1976   -19.2248 H       
 134 H134           6.8913   -13.2067   -19.9531 H       
 135 H135           7.2332   -11.9673   -18.7221 H       
 136 H136           7.3453   -12.7652   -16.2067 H       
 137 H137           5.8689   -15.6380   -20.1612 H       
 138 H138           7.3361   -15.0477   -15.0763 H       
 139 H139           6.7570   -17.7707   -15.7893 H       
 140 H140           5.6026   -18.0521   -19.8865 H       
 141 H141           6.0415   -19.1150   -17.7139 H       
 142 H142           5.5655   -12.6285   -21.6280 H       
 143 H143           4.2576   -10.1162   -22.3388 H       
 144 H144           6.4297    -9.1711   -23.4198 H       
 145 H145           4.8462   -10.8156   -24.6790 H       
 146 H146           5.6790   -12.2383   -24.0077 H       
 147 H147           3.5629   -12.9759   -22.9460 H       
 148 H148           2.7302   -11.5532   -23.6173 H       
 149 H149           1.3816   -14.5480   -25.9317 H       
 150 H150           1.7284   -14.6357   -24.1881 H       
 151 H151           0.8957   -13.2130   -24.8594 H       
@<TRIPOS>BOND
   1    1    2 1
   2    1   79 1
   3    1   80 1
   4    2    5 1
   5    2    3 1
   6    2   81 1
   7    3    4 2
   8    3    9 am
   9    5    6 1
  10    5    7 1
  11    5   82 1
  12    6    8 1
  13    6   83 1
  14    6   84 1
  15    7   85 1
  16    7   86 1
  17    7   87 1
  18    8   88 1
  19    8   89 1
  20    8   90 1
  21    9   10 1
  22    9   91 1
  23   10   11 1
  24   10   13 1
  25   10   92 1
  26   11   16 am
  27   11   12 2
  28   13   14 1
  29   13   15 1
  30   13   93 1
  31   14   94 1
  32   14   95 1
  33   14   96 1
  34   15   97 1
  35   15   98 1
  36   15   99 1
  37   16   17 1
  38   16  100 1
  39   17   18 1
  40   17  101 1
  41   17  102 1
  42   18   20 am
  43   18   19 2
  44   20   21 1
  45   20  103 1
  46   21   22 1
  47   21  104 1
  48   21  105 1
  49   22   24 am
  50   22   23 2
  51   24   25 1
  52   24  106 1
  53   25   28 1
  54   25   26 1
  55   25  107 1
  56   26   36 am
  57   26   27 2
  58   28   29 1
  59   28  108 1
  60   28  109 1
  61   29   30 ar
  62   29   31 ar
  63   30   32 ar
  64   30  110 1
  65   31   33 ar
  66   31  111 1
  67   32   34 ar
  68   32  112 1
  69   33   34 ar
  70   33  113 1
  71   34   35 1
  72   35  114 1
  73   36   42 1
  74   36   37 1
  75   37   38 1
  76   37   40 1
  77   37  115 1
  78   38   43 am
  79   38   39 2
  80   40   41 1
  81   40  116 1
  82   40  117 1
  83   41   42 1
  84   41  118 1
  85   41  119 1
  86   42  120 1
  87   42  121 1
  88   43   44 1
  89   43  122 1
  90   44   47 1
  91   44   45 1
  92   44  123 1
  93   45   57 am
  94   45   46 2
  95   47   48 1
  96   47  124 1
  97   47  125 1
  98   48   49 2
  99   48   50 1
 100   49   53 1
 101   49  126 1
 102   50   52 ar
 103   50   51 ar
 104   51   54 ar
 105   51   53 1
 106   52   55 ar
 107   52  127 1
 108   53  128 1
 109   54   56 ar
 110   54  129 1
 111   55   56 ar
 112   55  130 1
 113   56  131 1
 114   57   58 1
 115   57  132 1
 116   58   61 1
 117   58   59 1
 118   58  133 1
 119   59   60 2
 120   59   71 am
 121   61   62 1
 122   61  134 1
 123   61  135 1
 124   62   63 2
 125   62   64 1
 126   63   67 1
 127   63  136 1
 128   64   65 ar
 129   64   66 ar
 130   65   67 1
 131   65   68 ar
 132   66   69 ar
 133   66  137 1
 134   67  138 1
 135   68   70 ar
 136   68  139 1
 137   69   70 ar
 138   69  140 1
 139   70  141 1
 140   71   72 1
 141   71  142 1
 142   72   73 1
 143   72   75 1
 144   72  143 1
 145   73   74 2
 146   73  144 1
 147   75   76 1
 148   75  145 1
 149   75  146 1
 150   76   77 1
 151   76  147 1
 152   76  148 1
 153   77   78 1
 154   78  149 1
 155   78  150 1
 156   78  151 1

#	End of record

