#	Name: ASD08830083
#	Creating user name:	WinNT
#	Creation time:	15. 06. 2019 21:19

#	Modifying user name:	WinNT
#	Modification time:	15. 06. 2019 21:19

#	Program:	/corina/corina34_cracker 3.40 0067  02.08.2006

@<TRIPOS>MOLECULE
ASD08830083
  49   51    0    0    0
SMALL
NO_CHARGES


@<TRIPOS>ATOM
   1 C1            -0.0178     1.4644     0.0101 C.ar    
   2 C2             0.0021    -0.0041     0.0020 C.2     
   3 C3            -1.2926    -0.7753     0.0102 C.3     
   4 C4            -0.9927    -2.2755    -0.0007 C.3     
   5 N5            -2.2547    -3.0273     0.0073 N.3     
   6 O6             1.0606    -0.5962    -0.0113 O.2     
   7 C7             1.1846     2.1830     0.0025 C.ar    
   8 C8             1.1562     3.5625     0.0101 C.ar    
   9 C9            -0.0666     4.2394     0.0257 C.ar    
  10 C10           -1.2576     3.5268     0.0331 C.ar    
  11 C11           -1.2389     2.1498     0.0196 C.ar    
  12 N12            2.3483     4.3018     0.0014 N.am    
  13 C13            2.3074     5.6128     0.3244 C.2     
  14 C14            0.9974     6.2441     0.7218 C.3     
  15 O15           -0.0763     5.5974     0.0340 O.3     
  16 C16           -2.0183    -4.4552    -0.2407 C.3     
  17 C17           -3.2054    -2.4700    -0.9633 C.3     
  18 C18           -4.5532    -3.1817    -0.8256 C.3     
  19 C19           -4.3612    -4.6804    -1.0737 C.3     
  20 C20           -3.3307    -5.2261    -0.0814 C.3     
  21 N21           -5.6408    -5.3770    -0.8855 N.3     
  22 C22           -5.5213    -6.7999    -1.2306 C.3     
  23 C23           -6.1352    -5.2080     0.4875 C.3     
  24 O24            3.3205     6.2791     0.2953 O.2     
  25 H25           -1.8592    -0.5245     0.9070 H       
  26 H26           -1.8762    -0.5150    -0.8728 H       
  27 H27           -0.4261    -2.5263    -0.8975 H       
  28 H28           -0.4091    -2.5358     0.8824 H       
  29 H29            2.1293     1.6597    -0.0090 H       
  30 H30           -2.2006     4.0531     0.0453 H       
  31 H31           -2.1671     1.5977     0.0254 H       
  32 H32            3.1890     3.8782    -0.2326 H       
  33 H33            0.8552     6.1384     1.7973 H       
  34 H34            1.0105     7.3022     0.4603 H       
  35 H35           -1.6386    -4.5899    -1.2535 H       
  36 H36           -1.2868    -4.8318     0.4743 H       
  37 H37           -3.3361    -1.4047    -0.7732 H       
  38 H38           -2.8201    -2.6140    -1.9728 H       
  39 H39           -4.9456    -3.0265     0.1794 H       
  40 H40           -5.2539    -2.7786    -1.5568 H       
  41 H41           -4.0057    -4.8384    -2.0919 H       
  42 H42           -3.1580    -6.2837    -0.2808 H       
  43 H43           -3.7039    -5.1031     0.9353 H       
  44 H44           -4.7718    -7.2670    -0.5918 H       
  45 H45           -6.4827    -7.2917    -1.0823 H       
  46 H46           -5.2208    -6.8967    -2.2739 H       
  47 H47           -6.2810    -4.1476     0.6932 H       
  48 H48           -7.0835    -5.7336     0.5994 H       
  49 H49           -5.4079    -5.6175     1.1885 H       
@<TRIPOS>BOND
   1    1    2 1
   2    1    7 ar
   3    1   11 ar
   4    2    3 1
   5    2    6 2
   6    3    4 1
   7    3   25 1
   8    3   26 1
   9    4    5 1
  10    4   27 1
  11    4   28 1
  12    5   16 1
  13    5   17 1
  14    7    8 ar
  15    7   29 1
  16    8    9 ar
  17    8   12 1
  18    9   10 ar
  19    9   15 1
  20   10   11 ar
  21   10   30 1
  22   11   31 1
  23   12   13 am
  24   12   32 1
  25   13   14 1
  26   13   24 2
  27   14   15 1
  28   14   33 1
  29   14   34 1
  30   16   20 1
  31   16   35 1
  32   16   36 1
  33   17   18 1
  34   17   37 1
  35   17   38 1
  36   18   19 1
  37   18   39 1
  38   18   40 1
  39   19   20 1
  40   19   21 1
  41   19   41 1
  42   20   42 1
  43   20   43 1
  44   21   22 1
  45   21   23 1
  46   22   44 1
  47   22   45 1
  48   22   46 1
  49   23   47 1
  50   23   48 1
  51   23   49 1

#	End of record

