#	Name: ASD01814732
#	Creating user name:	WinNT
#	Creation time:	15. 06. 2019 19:32

#	Modifying user name:	WinNT
#	Modification time:	15. 06. 2019 19:32

#	Program:	/corina/corina34_cracker 3.40 0067  02.08.2006

@<TRIPOS>MOLECULE
ASD01814732
  50   53    0    0    0
SMALL
NO_CHARGES


@<TRIPOS>ATOM
   1 C1            -0.0178     1.4608     0.0101 C.3     
   2 N2             0.0021    -0.0041     0.0020 N.pl3   
   3 C3             0.0080    -0.7821    -1.1223 C.2     
   4 C4             0.0279    -2.0824    -0.7819 C.2     
   5 C5             0.0353    -2.1397     0.6785 C.ar    
   6 C6             0.0538    -3.1780     1.6135 C.ar    
   7 C7             0.0727    -4.6181     1.1699 C.3     
   8 C8             1.4932    -5.0414     0.8981 C.ar    
   9 C9             2.0323    -4.8806    -0.3647 C.ar    
  10 C10            3.3348    -5.2685    -0.6151 C.ar    
  11 C11            4.1002    -5.8179     0.3995 C.ar    
  12 F12            5.3739    -6.1970     0.1559 F       
  13 C13            3.5594    -5.9781     1.6640 C.ar    
  14 C14            2.2582    -5.5851     1.9133 C.ar    
  15 C15            0.0549    -2.8519     2.9446 C.ar    
  16 C16            0.0376    -1.5066     3.3227 C.ar    
  17 N17            0.0197    -0.5361     2.4195 N.ar    
  18 C18            0.0235    -0.7990     1.1245 C.ar    
  19 C19            0.0387    -1.1581     4.7605 C.2     
  20 O20            0.0546    -2.0379     5.5991 O.2     
  21 N21            0.0222     0.1349     5.1406 N.am    
  22 C22            0.0233     0.4799     6.5643 C.3     
  23 H23           -0.5533    -0.2603     7.1190 H       
  24 C24            1.4631     0.5015     7.0844 C.3     
  25 O25            1.4661     0.8946     8.4583 O.3     
  26 C26            0.9371     2.2014     8.6924 C.3     
  27 C27           -0.5238     2.2481     8.2369 C.3     
  28 C28           -0.6026     1.8648     6.7559 C.3     
  29 H29           -1.6454     1.8405     6.4396 H       
  30 O30            0.1130     2.8249     5.9761 O.3     
  31 H31            1.0048     1.8381     0.0023 H       
  32 H32           -0.5450     1.8219    -0.8730 H       
  33 H33           -0.5280     1.8123     0.9069 H       
  34 H34           -0.0025    -0.4071    -2.1351 H       
  35 H35            0.0362    -2.9242    -1.4584 H       
  36 H36           -0.3496    -5.2456     1.9548 H       
  37 H37           -0.5189    -4.7260     0.2608 H       
  38 H38            1.4351    -4.4520    -1.1560 H       
  39 H39            3.7555    -5.1434    -1.6020 H       
  40 H40            4.1554    -6.4069     2.4560 H       
  41 H41            1.8374    -5.7061     2.9005 H       
  42 H42            0.0686    -3.6283     3.6953 H       
  43 H43            0.0095     0.8369     4.4714 H       
  44 H44            1.8986    -0.4933     6.9900 H       
  45 H45            2.0494     1.2120     6.5017 H       
  46 H46            0.9937     2.4312     9.7563 H       
  47 H47            1.5166     2.9341     8.1307 H       
  48 H48           -1.1117     1.5444     8.8262 H       
  49 H49           -0.9159     3.2559     8.3738 H       
  50 H50           -0.2302     3.7259     6.0498 H       
@<TRIPOS>BOND
   1    1    2 1
   2    1   31 1
   3    1   32 1
   4    1   33 1
   5    2   18 1
   6    2    3 1
   7    3    4 2
   8    3   34 1
   9    4    5 1
  10    4   35 1
  11    5   18 ar
  12    5    6 ar
  13    6    7 1
  14    6   15 ar
  15    7    8 1
  16    7   36 1
  17    7   37 1
  18    8   14 ar
  19    8    9 ar
  20    9   10 ar
  21    9   38 1
  22   10   11 ar
  23   10   39 1
  24   11   12 1
  25   11   13 ar
  26   13   14 ar
  27   13   40 1
  28   14   41 1
  29   15   16 ar
  30   15   42 1
  31   16   17 ar
  32   16   19 1
  33   17   18 ar
  34   19   20 2
  35   19   21 am
  36   21   22 1
  37   21   43 1
  38   22   23 1
  39   22   28 1
  40   22   24 1
  41   24   25 1
  42   24   44 1
  43   24   45 1
  44   25   26 1
  45   26   27 1
  46   26   46 1
  47   26   47 1
  48   27   28 1
  49   27   48 1
  50   27   49 1
  51   28   29 1
  52   28   30 1
  53   30   50 1

#	End of record

