#	Name: ASD01882385
#	Creating user name:	WinNT
#	Creation time:	15. 06. 2019 19:44

#	Modifying user name:	WinNT
#	Modification time:	15. 06. 2019 19:44

#	Program:	/corina/corina34_cracker 3.40 0067  02.08.2006

@<TRIPOS>MOLECULE
ASD01882385
  49   53    0    0    0
SMALL
NO_CHARGES


@<TRIPOS>ATOM
   1 C1             0.8918     1.1642     1.6048 C.2     
   2 C2             1.0586    -0.2285     1.5091 C.2     
   3 C3             1.2618    -0.7928     0.2784 C.2     
   4 C4             1.2999     0.0304    -0.8676 C.2     
   5 C5             1.1376     1.3631    -0.7527 C.2     
   6 N6             0.9346     1.9358     0.4691 N.pl3   
   7 N7             0.5956     3.1953     2.1836 N.2     
   8 N8             0.6787     1.9878     2.6199 N.2     
   9 C9             0.7429     3.2205     0.8851 C.2     
  10 N10            1.4302    -2.1702     0.1581 N.pl3   
  11 C11            2.7050    -2.7304    -0.3107 C.3     
  12 C12            2.4282    -3.6641    -1.4932 C.3     
  13 C13            1.3951    -4.7140    -1.0780 C.3     
  14 C14            0.0862    -4.0202    -0.6937 C.3     
  15 C15            0.3384    -3.0908     0.5032 C.3     
  16 O16            1.1585    -5.6064    -2.1687 O.3     
  17 C17            0.5161    -7.7965    -2.8588 C.ar    
  18 C18            0.7141    -6.8533    -1.8606 C.ar    
  19 C19            0.4517    -7.2023    -0.5399 C.ar    
  20 C20            0.0007    -8.4856    -0.2751 C.ar    
  21 C21           -0.1723    -9.3698    -1.3231 C.ar    
  22 N22            0.0857    -9.0071    -2.5645 N.ar    
  23 C23            0.7054     4.4451     0.0076 C.3     
  24 C24           -0.7316     4.6997    -0.4517 C.3     
  25 C25           -1.0003     5.9706    -1.2600 C.3     
  26 C26           -1.0212     4.6057    -1.9511 C.3     
  27 Cl27           1.0082    -1.2198     2.9333 Cl      
  28 H28            1.4602    -0.4098    -1.8407 H       
  29 H29            1.1689     1.9839    -1.6359 H       
  30 H30            3.3639    -1.9226    -0.6293 H       
  31 H31            3.1759    -3.2921     0.4961 H       
  32 H32            2.0414    -3.0846    -2.3315 H       
  33 H33            3.3525    -4.1603    -1.7891 H       
  34 H34            1.7722    -5.2767    -0.2240 H       
  35 H35           -0.2786    -3.4374    -1.5395 H       
  36 H36           -0.6564    -4.7699    -0.4206 H       
  37 H37            0.6202    -3.6814     1.3749 H       
  38 H38           -0.5648    -2.5210     0.7217 H       
  39 H39            0.7125    -7.5346    -3.8880 H       
  40 H40            0.5963    -6.4907     0.2595 H       
  41 H41           -0.2127    -8.7914     0.7385 H       
  42 H42           -0.5232   -10.3714    -1.1228 H       
  43 H43            1.0650     5.3066     0.5704 H       
  44 H44            1.3426     4.2881    -0.8628 H       
  45 H45           -1.5104     4.3650     0.2335 H       
  46 H46           -1.9560     6.4718    -1.1069 H       
  47 H47           -0.1533     6.6254    -1.4646 H       
  48 H48           -0.1879     4.3626    -2.6104 H       
  49 H49           -1.9906     4.2090    -2.2526 H       
@<TRIPOS>BOND
   1    1    2 1
   2    1    6 1
   3    1    8 2
   4    2    3 2
   5    2   27 1
   6    3    4 1
   7    3   10 1
   8    4    5 2
   9    4   28 1
  10    5    6 1
  11    5   29 1
  12    6    9 1
  13    7    8 1
  14    7    9 2
  15    9   23 1
  16   10   11 1
  17   10   15 1
  18   11   12 1
  19   11   30 1
  20   11   31 1
  21   12   13 1
  22   12   32 1
  23   12   33 1
  24   13   14 1
  25   13   16 1
  26   13   34 1
  27   14   15 1
  28   14   35 1
  29   14   36 1
  30   15   37 1
  31   15   38 1
  32   16   18 1
  33   17   18 ar
  34   17   22 ar
  35   17   39 1
  36   18   19 ar
  37   19   20 ar
  38   19   40 1
  39   20   21 ar
  40   20   41 1
  41   21   22 ar
  42   21   42 1
  43   23   24 1
  44   23   43 1
  45   23   44 1
  46   24   25 1
  47   24   26 1
  48   24   45 1
  49   25   26 1
  50   25   46 1
  51   25   47 1
  52   26   48 1
  53   26   49 1

#	End of record

