#	Name: ASD09116101
#	Creating user name:	WinNT
#	Creation time:	15. 06. 2019 21:20

#	Modifying user name:	WinNT
#	Modification time:	15. 06. 2019 21:20

#	Program:	/corina/corina34_cracker 3.40 0067  02.08.2006

@<TRIPOS>MOLECULE
ASD09116101
  74   79    0    0    0
SMALL
NO_CHARGES


@<TRIPOS>ATOM
   1 C1             0.0461     1.3708     0.1894 C.ar    
   2 N2             0.1367    -0.0051     0.4117 N.pl3   
   3 N3             1.1109    -0.8774    -0.1000 N.2     
   4 C4             0.8271    -2.0755     0.3518 C.2     
   5 N5            -0.2685    -2.0048     1.1170 N.2     
   6 C6            -0.6938    -0.7607     1.1678 C.2     
   7 N7            -1.7990    -0.3071     1.8624 N.pl3   
   8 N8             1.5504    -3.2364     0.0784 N.pl3   
   9 C9             1.1810     2.0957    -0.1385 C.ar    
  10 N10           -1.1190     1.9820     0.2855 N.ar    
  11 C11           -1.2770     3.2809     0.0862 C.ar    
  12 C12           -0.2006     4.0800    -0.2234 C.ar    
  13 C13            1.0640     3.4679    -0.3486 C.ar    
  14 C14            1.0819    -4.4761     0.5307 C.ar    
  15 C15           -0.2824    -4.6929     0.6734 C.ar    
  16 C16           -0.7443    -5.9152     1.1194 C.ar    
  17 C17            0.1553    -6.9278     1.4259 C.ar    
  18 C18            1.5196    -6.7111     1.2832 C.ar    
  19 C19            1.9813    -5.4908     0.8313 C.ar    
  20 C20           -2.6736     3.8300     0.2053 C.3     
  21 C21           -3.3094     4.0305    -1.1728 C.3     
  22 C22           -2.4595     4.9036    -2.0990 C.3     
  23 C23           -2.5538     6.1800    -1.2792 C.3     
  24 C24           -1.4991     6.4103    -0.2122 C.3     
  25 C25           -0.2549     5.5654    -0.4388 C.3     
  26 C26            2.2649     4.2615    -0.7088 C.ar    
  27 C27            2.6483     5.3459     0.0778 C.ar    
  28 C28            3.0167     3.9216    -1.8317 C.ar    
  29 C29            4.1327     4.6633    -2.1622 C.ar    
  30 C30            4.5054     5.7422    -1.3810 C.ar    
  31 C31            3.7661     6.0806    -0.2620 C.ar    
  32 N32           -0.3129    -8.1666     1.8789 N.3     
  33 C33            0.8022    -9.0867     2.1426 C.3     
  34 C34            0.2545   -10.3984     2.7099 C.3     
  35 N35           -0.6936   -10.9852     1.7526 N.3     
  36 C36           -1.8087   -10.0650     1.4890 C.3     
  37 C37           -1.2610    -8.7533     0.9216 C.3     
  38 C38           -1.1850   -12.2853     2.2281 C.3     
  39 H39           -2.3401    -0.9296     2.3729 H       
  40 H40           -2.0337     0.6338     1.8394 H       
  41 H41            2.3779    -3.1850    -0.4251 H       
  42 H42            2.1403     1.6068    -0.2316 H       
  43 H43           -0.9821    -3.9052     0.4358 H       
  44 H44           -1.8053    -6.0838     1.2304 H       
  45 H45            2.2193    -7.4985     1.5215 H       
  46 H46            3.0423    -5.3222     0.7204 H       
  47 H47           -3.2835     3.0967     0.7531 H       
  48 H48           -2.6825     4.7501     0.7695 H       
  49 H49           -3.4395     3.0544    -1.6396 H       
  50 H50           -4.2863     4.4938    -1.0474 H       
  51 H51           -1.4412     4.5316    -2.1929 H       
  52 H52           -2.9261     5.0124    -3.0820 H       
  53 H53           -2.5197     7.0271    -1.9755 H       
  54 H54           -3.5380     6.2103    -0.8025 H       
  55 H55           -1.2021     7.4710    -0.2455 H       
  56 H56           -1.9046     6.2272     0.7795 H       
  57 H57            0.5193     6.0077     0.2033 H       
  58 H58            0.0680     5.7534    -1.4681 H       
  59 H59            2.0715     5.6111     0.9516 H       
  60 H60            2.7268     3.0791    -2.4422 H       
  61 H61            4.7163     4.4005    -3.0321 H       
  62 H62            5.3797     6.3197    -1.6430 H       
  63 H63            4.0616     6.9240     0.3445 H       
  64 H64            1.3358    -9.2871     1.2134 H       
  65 H65            1.4837    -8.6351     2.8635 H       
  66 H66            1.0773   -11.0931     2.8791 H       
  67 H67           -0.2556   -10.2018     3.6529 H       
  68 H68           -2.4902   -10.5167     0.7681 H       
  69 H69           -2.3423    -9.8647     2.4181 H       
  70 H70           -2.0838    -8.0587     0.7524 H       
  71 H71           -0.7509    -8.9499    -0.0214 H       
  72 H72           -1.6903   -12.1549     3.1851 H       
  73 H73           -1.8848   -12.6973     1.5010 H       
  74 H74           -0.3446   -12.9685     2.3511 H       
@<TRIPOS>BOND
   1    1    2 1
   2    1    9 ar
   3    1   10 ar
   4    2    3 1
   5    2    6 1
   6    3    4 2
   7    4    5 1
   8    4    8 1
   9    5    6 2
  10    6    7 1
  11    7   39 1
  12    7   40 1
  13    8   14 1
  14    8   41 1
  15    9   13 ar
  16    9   42 1
  17   10   11 ar
  18   11   12 ar
  19   11   20 1
  20   12   13 ar
  21   12   25 1
  22   13   26 1
  23   14   15 ar
  24   14   19 ar
  25   15   16 ar
  26   15   43 1
  27   16   17 ar
  28   16   44 1
  29   17   18 ar
  30   17   32 1
  31   18   19 ar
  32   18   45 1
  33   19   46 1
  34   20   21 1
  35   20   47 1
  36   20   48 1
  37   21   22 1
  38   21   49 1
  39   21   50 1
  40   22   23 1
  41   22   51 1
  42   22   52 1
  43   23   24 1
  44   23   53 1
  45   23   54 1
  46   24   25 1
  47   24   55 1
  48   24   56 1
  49   25   57 1
  50   25   58 1
  51   26   27 ar
  52   26   28 ar
  53   27   31 ar
  54   27   59 1
  55   28   29 ar
  56   28   60 1
  57   29   30 ar
  58   29   61 1
  59   30   31 ar
  60   30   62 1
  61   31   63 1
  62   32   33 1
  63   32   37 1
  64   33   34 1
  65   33   64 1
  66   33   65 1
  67   34   35 1
  68   34   66 1
  69   34   67 1
  70   35   36 1
  71   35   38 1
  72   36   37 1
  73   36   68 1
  74   36   69 1
  75   37   70 1
  76   37   71 1
  77   38   72 1
  78   38   73 1
  79   38   74 1

#	End of record

