#	Name: ASD00960127
#	Creating user name:	WinNT
#	Creation time:	15. 06. 2019 18:53

#	Modifying user name:	WinNT
#	Modification time:	15. 06. 2019 18:53

#	Program:	/corina/corina34_cracker 3.40 0067  02.08.2006

@<TRIPOS>MOLECULE
ASD00960127
  41   44    0    0    0
SMALL
NO_CHARGES


@<TRIPOS>ATOM
   1 C1            -0.8765     2.1943    -0.4456 C.3     
   2 C2            -0.3221     0.7564    -0.3390 C.3     
   3 O3            -1.1289     0.1243     0.6786 O.3     
   4 C4            -1.3053     1.1279     1.7021 C.3     
   5 C5            -2.5222     0.7969     2.5684 C.3     
   6 C6            -0.4765     0.0358    -1.6536 C.2     
   7 C7             0.3958     0.0996    -2.6875 C.2     
   8 N8            -1.5059    -0.7803    -1.9817 N.pl3   
   9 C9            -1.3040    -1.2559    -3.2599 C.2     
  10 C10           -0.1057    -0.7115    -3.7259 C.2     
  11 N11           -2.6564    -1.1924    -1.2936 N.2     
  12 C12           -3.5029    -2.0057    -1.8645 C.2     
  13 N13           -3.3188    -2.4714    -3.0977 N.2     
  14 C14           -2.2591    -2.1319    -3.8149 C.2     
  15 N15           -2.0919    -2.6290    -5.0926 N.pl3   
  16 C16           -1.5382     2.4443     0.9280 C.3     
  17 C17            0.5132    -0.9398    -5.0440 C.2     
  18 O18           -2.3171    -0.4593     3.2179 O.3     
  19 N19           -0.0975    -0.8494    -6.1930 N.2     
  20 C20            0.6191    -1.0885    -7.2689 C.2     
  21 C21            1.9010    -1.3990    -7.0584 C.2     
  22 S22            2.1986    -1.3713    -5.3215 S.3     
  23 O23           -0.9056     3.5372     1.5970 O.3     
  24 *24           -1.5027     4.7888     1.3421 Du      
  25 N25           -0.1019     1.2274     2.5316 N.2     
  26 N26            0.2474     0.3385     3.1241 N.1     
  27 N27            0.5966    -0.5505     3.7167 N.pl3   
  28 O28            0.1849     3.1251    -0.6669 O.3     
  29 *29           -0.1948     4.2620    -1.4095 Du      
  30 H30           -1.6144     2.2609    -1.2451 H       
  31 H31            0.7248     0.7748    -0.0361 H       
  32 H32           -2.6568     1.5761     3.3186 H       
  33 H33           -3.4110     0.7402     1.9399 H       
  34 H34            1.3121     0.6707    -2.7124 H       
  35 H35           -4.3826    -2.3113    -1.3175 H       
  36 H36           -2.8058    -3.1323    -5.5144 H       
  37 H37           -1.2606    -2.4748    -5.5681 H       
  38 H38           -2.6050     2.6339     0.8093 H       
  39 H39           -3.0507    -0.7332     3.7852 H       
  40 H40            0.1972    -1.0373    -8.2618 H       
  41 H41            2.6310    -1.6244    -7.8218 H       
@<TRIPOS>BOND
   1    1    2 1
   2    1   28 1
   3    1   16 1
   4    1   30 1
   5    2    3 1
   6    2    6 1
   7    2   31 1
   8    3    4 1
   9    4    5 1
  10    4   25 1
  11    4   16 1
  12    5   18 1
  13    5   32 1
  14    5   33 1
  15    6    7 2
  16    6    8 1
  17    7   10 1
  18    7   34 1
  19    8    9 1
  20    8   11 1
  21    9   10 2
  22    9   14 1
  23   10   17 1
  24   11   12 2
  25   12   13 1
  26   12   35 1
  27   13   14 2
  28   14   15 1
  29   15   36 1
  30   15   37 1
  31   16   23 1
  32   16   38 1
  33   17   19 2
  34   17   22 1
  35   18   39 1
  36   19   20 1
  37   20   21 2
  38   20   40 1
  39   21   22 1
  40   21   41 1
  41   23   24 1
  42   25   26 2
  43   26   27 2
  44   28   29 1

#	End of record

