#	Name: ASD01910245
#	Creating user name:	WinNT
#	Creation time:	15. 06. 2019 19:55

#	Modifying user name:	WinNT
#	Modification time:	15. 06. 2019 19:55

#	Program:	/corina/corina34_cracker 3.40 0067  02.08.2006

@<TRIPOS>MOLECULE
ASD01910245
  46   50    0    0    0
SMALL
NO_CHARGES


@<TRIPOS>ATOM
   1 C1             0.4745     0.9567    -0.1571 C.2     
   2 C2             1.5608     1.9995    -0.0976 C.3     
   3 C3             1.4960     2.8765    -1.3501 C.3     
   4 C4             2.6193     3.9151    -1.3063 C.3     
   5 C5             2.4329     4.8115    -0.0782 C.3     
   6 N6             2.3487     3.9629     1.1183 N.am    
   7 C7             1.3624     2.8742     1.1443 C.3     
   8 C8             3.1608     4.1790     2.1720 C.2     
   9 C9             2.9787     3.4041     3.4157 C.ar    
  10 O10            4.0433     5.0121     2.0985 O.2     
  11 N11            0.6420    -0.3423    -0.1513 N.2     
  12 C12           -0.6017    -0.8692    -0.2170 C.2     
  13 N13           -1.4430     0.1312    -0.2584 N.2     
  14 O14           -0.8413     1.1836    -0.2198 O.3     
  15 C15           -0.9470    -2.3121    -0.2389 C.ar    
  16 C16           -2.2806    -2.7104    -0.3089 C.ar    
  17 C17           -2.5973    -4.0530    -0.3295 C.ar    
  18 C18           -1.5915    -5.0049    -0.2807 C.ar    
  19 C19           -0.2642    -4.6132    -0.2110 C.ar    
  20 C20            0.0616    -3.2727    -0.1953 C.ar    
  21 F21           -1.9059    -6.3187    -0.3006 F       
  22 C22            4.0974     2.9116     4.1007 C.ar    
  23 C23            3.9346     2.1960     5.2487 C.ar    
  24 C24            2.6570     1.9478     5.7518 C.ar    
  25 C25            1.5226     2.4303     5.0848 C.ar    
  26 C26            1.7008     3.1716     3.9038 C.ar    
  27 S27            2.1142     1.0746     7.1821 S.3     
  28 C28            0.4851     1.4057     6.7975 C.2     
  29 N29            0.3852     2.0898     5.7221 N.2     
  30 H30            2.5331     1.5095    -0.0465 H       
  31 H31            1.6123     2.2530    -2.2365 H       
  32 H32            0.5326     3.3850    -1.3879 H       
  33 H33            3.5818     3.4075    -1.2436 H       
  34 H34            2.5869     4.5242    -2.2096 H       
  35 H35            3.2827     5.4881     0.0128 H       
  36 H36            1.5137     5.3880    -0.1827 H       
  37 H37            0.3560     3.2927     1.1394 H       
  38 H38            1.5059     2.2725     2.0417 H       
  39 H39           -3.0651    -1.9691    -0.3466 H       
  40 H40           -3.6305    -4.3626    -0.3834 H       
  41 H41            0.5167    -5.3584    -0.1732 H       
  42 H42            1.0964    -2.9683    -0.1411 H       
  43 H43            5.0898     3.0992     3.7182 H       
  44 H44            4.8002     1.8180     5.7725 H       
  45 H45            0.8422     3.5543     3.3721 H       
  46 H46           -0.3570     1.0781     7.3890 H       
@<TRIPOS>BOND
   1    1   11 2
   2    1    2 1
   3    1   14 1
   4    2    3 1
   5    2    7 1
   6    2   30 1
   7    3    4 1
   8    3   31 1
   9    3   32 1
  10    4    5 1
  11    4   33 1
  12    4   34 1
  13    5    6 1
  14    5   35 1
  15    5   36 1
  16    6    7 1
  17    6    8 am
  18    7   37 1
  19    7   38 1
  20    8    9 1
  21    8   10 2
  22    9   22 ar
  23    9   26 ar
  24   11   12 1
  25   12   13 2
  26   12   15 1
  27   13   14 1
  28   15   16 ar
  29   15   20 ar
  30   16   17 ar
  31   16   39 1
  32   17   18 ar
  33   17   40 1
  34   18   19 ar
  35   18   21 1
  36   19   20 ar
  37   19   41 1
  38   20   42 1
  39   22   23 ar
  40   22   43 1
  41   23   24 ar
  42   23   44 1
  43   24   25 ar
  44   24   27 1
  45   25   26 ar
  46   25   29 1
  47   26   45 1
  48   27   28 1
  49   28   29 2
  50   28   46 1

#	End of record

