#	Name: ASD05313076
#	Creating user name:	WinNT
#	Creation time:	15. 06. 2019 20:58

#	Modifying user name:	WinNT
#	Modification time:	15. 06. 2019 20:58

#	Program:	/corina/corina34_cracker 3.40 0067  02.08.2006

@<TRIPOS>MOLECULE
ASD05313076
  41   44    0    0    0
SMALL
NO_CHARGES


@<TRIPOS>ATOM
   1 C1            -0.0014     0.7911     1.0179 C.2     
   2 C2             0.1824    -0.6530     0.6169 C.3     
   3 N3             1.0176     1.6951     1.0725 N.pl3   
   4 N4             1.5472    -0.7768     0.0707 N.am    
   5 C5             2.6433    -0.1026     0.7826 C.3     
   6 C6             2.4142     1.4131     0.7461 C.3     
   7 N7            -0.8297     2.6361     1.6431 N.2     
   8 N8            -1.0906     1.4041     1.3690 N.2     
   9 C9             0.4569     2.8670     1.4781 C.2     
  10 C10            0.6517     5.3355     1.1580 C.ar    
  11 C11            1.1578     4.1517     1.6955 C.ar    
  12 C12            2.3388     4.1997     2.4440 C.ar    
  13 C13            2.9555     5.4265     2.6185 C.ar    
  14 C14            2.3901     6.5548     2.0529 C.ar    
  15 N15            1.2749     6.4793     1.3521 N.ar    
  16 C16           -0.6158     5.3042     0.3435 C.3     
  17 C17            1.7831    -1.4884    -1.0493 C.2     
  18 O18            2.8954    -1.4994    -1.5394 O.2     
  19 C19            0.6895    -2.2553    -1.6815 C.ar    
  20 C20            0.5066    -2.2055    -3.0657 C.ar    
  21 C21           -0.5187    -2.9257    -3.6496 C.ar    
  22 C22           -1.3621    -3.6934    -2.8653 C.ar    
  23 C23           -1.1852    -3.7455    -1.4940 C.ar    
  24 C24           -0.1620    -3.0372    -0.8990 C.ar    
  25 Cl25          -0.7493    -2.8666    -5.3692 Cl      
  26 Cl26           1.5636    -1.2417    -4.0494 Cl      
  27 H27            0.0703    -1.2983     1.4882 H       
  28 H28           -0.5491    -0.9238    -0.1445 H       
  29 H29            2.6677    -0.4418     1.8182 H       
  30 H30            3.5911    -0.3392     0.2992 H       
  31 H31            2.6385     1.7908    -0.2514 H       
  32 H32            3.0637     1.8979     1.4749 H       
  33 H33            2.7584     3.3027     2.8749 H       
  34 H34            3.8684     5.5019     3.1906 H       
  35 H35            2.8691     7.5134     2.1874 H       
  36 H36           -1.4735     5.4482     1.0005 H       
  37 H37           -0.5897     6.1010    -0.3999 H       
  38 H38           -0.7009     4.3409    -0.1593 H       
  39 H39           -2.1620    -4.2542    -3.3258 H       
  40 H40           -1.8473    -4.3464    -0.8882 H       
  41 H41           -0.0231    -3.0832     0.1710 H       
@<TRIPOS>BOND
   1    1    2 1
   2    1    3 1
   3    1    8 2
   4    2    4 1
   5    2   27 1
   6    2   28 1
   7    3    6 1
   8    3    9 1
   9    4    5 1
  10    4   17 am
  11    5    6 1
  12    5   29 1
  13    5   30 1
  14    6   31 1
  15    6   32 1
  16    7    8 1
  17    7    9 2
  18    9   11 1
  19   10   11 ar
  20   10   15 ar
  21   10   16 1
  22   11   12 ar
  23   12   13 ar
  24   12   33 1
  25   13   14 ar
  26   13   34 1
  27   14   15 ar
  28   14   35 1
  29   16   36 1
  30   16   37 1
  31   16   38 1
  32   17   18 2
  33   17   19 1
  34   19   20 ar
  35   19   24 ar
  36   20   21 ar
  37   20   26 1
  38   21   22 ar
  39   21   25 1
  40   22   23 ar
  41   22   39 1
  42   23   24 ar
  43   23   40 1
  44   24   41 1

#	End of record

