#	Name: ASD01917586
#	Creating user name:	WinNT
#	Creation time:	15. 06. 2019 20:09

#	Modifying user name:	WinNT
#	Modification time:	15. 06. 2019 20:09

#	Program:	/corina/corina34_cracker 3.40 0067  02.08.2006

@<TRIPOS>MOLECULE
ASD01917586
  22   23    0    0    0
SMALL
NO_CHARGES


@<TRIPOS>ATOM
   1 C1             0.0510     1.7829    -0.0748 C.3     
   2 S2            -0.0084    -0.0285     0.0013 S.o2    
   3 O3            -1.3336    -0.4737     0.2562 O.2     
   4 O4             0.7670    -0.5972    -1.0449 O.2     
   5 O5             0.7562    -0.3806     1.2693 O.3     
   6 F6             1.3838     2.2037    -0.1349 F       
   7 F7            -0.6292     2.2244    -1.2148 F       
   8 F8            -0.5559     2.3178     1.0666 F       
   9 C9            -1.3158     0.4058     4.7241 C.2     
  10 C10           -0.0765    -0.2578     4.8007 C.2     
  11 C11            0.6106    -0.5195     3.6565 C.2     
  12 C12            0.0732    -0.1227     2.4169 C.2     
  13 C13           -1.1198     0.5147     2.3620 C.2     
  14 N14           -1.8187     0.7824     3.5062 N.pl3   
  15 N15           -3.0479     1.4130     3.7357 N.2     
  16 C16           -3.2871     1.4228     5.0292 C.2     
  17 C17           -2.2384     0.8013     5.6862 C.2     
  18 H18            0.3243    -0.5563     5.7581 H       
  19 H19            1.5628    -1.0274     3.6984 H       
  20 H20           -1.5228     0.8147     1.4060 H       
  21 H21           -4.1621     1.8437     5.5020 H       
  22 H22           -2.1519     0.6526     6.7524 H       
@<TRIPOS>BOND
   1    1    2 1
   2    1    6 1
   3    1    7 1
   4    1    8 1
   5    2    3 2
   6    2    4 2
   7    2    5 1
   8    5   12 1
   9    9   10 1
  10    9   14 1
  11    9   17 2
  12   10   11 2
  13   10   18 1
  14   11   12 1
  15   11   19 1
  16   12   13 2
  17   13   14 1
  18   13   20 1
  19   14   15 1
  20   15   16 2
  21   16   17 1
  22   16   21 1
  23   17   22 1

#	End of record

