#	Name: ASD01882932
#	Creating user name:	WinNT
#	Creation time:	15. 06. 2019 19:45

#	Modifying user name:	WinNT
#	Modification time:	15. 06. 2019 19:45

#	Program:	/corina/corina34_cracker 3.40 0067  02.08.2006

@<TRIPOS>MOLECULE
ASD01882932
  54   57    0    0    0
SMALL
NO_CHARGES


@<TRIPOS>ATOM
   1 C1            -0.1965     1.1259     0.0643 C.2     
   2 C2             0.1017    -0.3160    -0.0177 C.ar    
   3 C3             1.4451    -0.7238    -0.0804 C.ar    
   4 N4             2.4577     0.2131    -0.0653 N.pl3   
   5 C5             2.2249     1.5321     0.0084 C.2     
   6 C6             0.9482     2.0503     0.0750 C.2     
   7 C7             3.7838    -0.2314    -0.1293 C.ar    
   8 C8             4.5520     0.0322    -1.2559 C.ar    
   9 C9             5.8599    -0.4067    -1.3168 C.ar    
  10 C10            6.4055    -1.1097    -0.2556 C.ar    
  11 C11            5.6412    -1.3736     0.8688 C.ar    
  12 C12            4.3347    -0.9315     0.9361 C.ar    
  13 C13           -0.9208    -1.2643    -0.0329 C.ar    
  14 C14           -0.6061    -2.6033    -0.1098 C.ar    
  15 C15            0.7195    -3.0082    -0.1714 C.ar    
  16 C16            1.7397    -2.0822    -0.1581 C.ar    
  17 O17           -1.3433     1.5350     0.1159 O.2     
  18 C18            0.7345     3.5039     0.1545 C.2     
  19 O19            1.6851     4.2524     0.2804 O.2     
  20 N20           -0.5144     4.0061     0.0878 N.am    
  21 F21            7.6850    -1.5390    -0.3175 F       
  22 C22           -1.7065    -3.6328    -0.1267 C.3     
  23 N23           -2.1076    -3.8981    -1.5147 N.3     
  24 C24           -1.0176    -4.5389    -2.2648 C.3     
  25 C25           -2.5435    -2.6630    -2.1824 C.3     
  26 C26           -3.0078    -2.9940    -3.6033 C.3     
  27 O27           -1.9461    -3.6442    -4.3071 O.3     
  28 C28           -1.4972    -4.8511    -3.6848 C.3     
  29 C29           -4.2227    -3.9219    -3.5406 C.3     
  30 C30           -3.3872    -1.7025    -4.3306 C.3     
  31 H31            3.0649     2.2108     0.0167 H       
  32 H32            4.1267     0.5798    -2.0840 H       
  33 H33            6.4576    -0.2019    -2.1927 H       
  34 H34            6.0685    -1.9223     1.6951 H       
  35 H35            3.7404    -1.1337     1.8150 H       
  36 H36           -1.9531    -0.9509     0.0156 H       
  37 H37            0.9543    -4.0607    -0.2311 H       
  38 H38            2.7676    -2.4101    -0.2068 H       
  39 H39           -1.2653     3.4173    -0.0864 H       
  40 H40           -0.6624     4.9564     0.2140 H       
  41 H41           -1.3482    -4.5551     0.3306 H       
  42 H42           -2.5630    -3.2582     0.4337 H       
  43 H43           -0.1616    -3.8656    -2.3095 H       
  44 H44           -0.7280    -5.4643    -1.7668 H       
  45 H45           -3.3678    -2.2190    -1.6243 H       
  46 H46           -1.7119    -1.9597    -2.2258 H       
  47 H47           -0.6749    -5.2741    -4.2619 H       
  48 H48           -2.3188    -5.5661    -3.6426 H       
  49 H49           -5.0302    -3.4273    -3.0008 H       
  50 H50           -4.5527    -4.1571    -4.5525 H       
  51 H51           -3.9506    -4.8423    -3.0240 H       
  52 H52           -2.5205    -1.0431    -4.3763 H       
  53 H53           -3.7177    -1.9388    -5.3421 H       
  54 H54           -4.1938    -1.2055    -3.7917 H       
@<TRIPOS>BOND
   1    1    2 1
   2    1    6 1
   3    1   17 2
   4    2    3 ar
   5    2   13 ar
   6    3    4 1
   7    3   16 ar
   8    4    5 1
   9    4    7 1
  10    5    6 2
  11    5   31 1
  12    6   18 1
  13    7    8 ar
  14    7   12 ar
  15    8    9 ar
  16    8   32 1
  17    9   10 ar
  18    9   33 1
  19   10   11 ar
  20   10   21 1
  21   11   12 ar
  22   11   34 1
  23   12   35 1
  24   13   14 ar
  25   13   36 1
  26   14   15 ar
  27   14   22 1
  28   15   16 ar
  29   15   37 1
  30   16   38 1
  31   18   19 2
  32   18   20 am
  33   20   39 1
  34   20   40 1
  35   22   23 1
  36   22   41 1
  37   22   42 1
  38   23   24 1
  39   23   25 1
  40   24   28 1
  41   24   43 1
  42   24   44 1
  43   25   26 1
  44   25   45 1
  45   25   46 1
  46   26   27 1
  47   26   29 1
  48   26   30 1
  49   27   28 1
  50   28   47 1
  51   28   48 1
  52   29   49 1
  53   29   50 1
  54   29   51 1
  55   30   52 1
  56   30   53 1
  57   30   54 1

#	End of record

