#	Name: ASD04880158
#	Creating user name:	WinNT
#	Creation time:	15. 06. 2019 20:52

#	Modifying user name:	WinNT
#	Modification time:	15. 06. 2019 20:52

#	Program:	/corina/corina34_cracker 3.40 0067  02.08.2006

@<TRIPOS>MOLECULE
ASD04880158
  41   43    0    0    0
SMALL
NO_CHARGES


@<TRIPOS>ATOM
   1 C1            -0.0144     1.2118     0.0087 C.2     
   2 O2             0.0580    -0.0018    -0.0140 O.2     
   3 C3             1.2185     2.0262    -0.0194 C.ar    
   4 C4             2.4674     1.4102     0.0723 C.ar    
   5 C5             3.6162     2.1780     0.0449 C.ar    
   6 C6             3.5284     3.5558    -0.0727 C.ar    
   7 C7             2.2924     4.1706    -0.1639 C.ar    
   8 C8             1.1388     3.4147    -0.1435 C.ar    
   9 F9             4.8266     1.5844     0.1335 F       
  10 N10           -1.2192     1.8143     0.0538 N.am    
  11 N11           -1.4358     3.1834     0.1955 N.2     
  12 C12           -2.6794     3.5207     0.2112 C.2     
  13 C13           -3.5395     2.2856     0.0664 C.3     
  14 C14           -2.5204     1.1343    -0.0448 C.3     
  15 C15           -3.1855     4.8983     0.3490 C.ar    
  16 C16           -2.2905     5.9639     0.4759 C.ar    
  17 C17           -2.7705     7.2537     0.6049 C.ar    
  18 C18           -4.1437     7.4890     0.6087 C.ar    
  19 C19           -5.0326     6.4313     0.4833 C.ar    
  20 C20           -4.5613     5.1425     0.3475 C.ar    
  21 O21           -4.6137     8.7581     0.7362 O.3     
  22 C22           -6.0325     8.9279     0.7324 C.3     
  23 O23           -1.9023     8.2931     0.7286 O.3     
  24 C24           -0.5083     7.9788     0.7172 C.3     
  25 H25            2.5360     0.3363     0.1648 H       
  26 H26            4.4285     4.1522    -0.0930 H       
  27 H27            2.2308     5.2450    -0.2551 H       
  28 H28            0.1752     3.8964    -0.2193 H       
  29 H29           -4.1733     2.1561     0.9437 H       
  30 H30           -4.1446     2.3450    -0.8383 H       
  31 H31           -2.6161     0.6265    -1.0045 H       
  32 H32           -2.6486     0.4302     0.7773 H       
  33 H33           -1.2262     5.7801     0.4735 H       
  34 H34           -6.0963     6.6182     0.4875 H       
  35 H35           -5.2554     4.3216     0.2447 H       
  36 H36           -6.2722     9.9857     0.8409 H       
  37 H37           -6.4402     8.5577    -0.2083 H       
  38 H38           -6.4675     8.3699     1.5615 H       
  39 H39           -0.2805     7.3069     1.5447 H       
  40 H40           -0.2528     7.4943    -0.2252 H       
  41 H41            0.0717     8.8956     0.8233 H       
@<TRIPOS>BOND
   1    1    2 2
   2    1    3 1
   3    1   10 am
   4    3    4 ar
   5    3    8 ar
   6    4    5 ar
   7    4   25 1
   8    5    6 ar
   9    5    9 1
  10    6    7 ar
  11    6   26 1
  12    7    8 ar
  13    7   27 1
  14    8   28 1
  15   10   11 1
  16   10   14 1
  17   11   12 2
  18   12   13 1
  19   12   15 1
  20   13   14 1
  21   13   29 1
  22   13   30 1
  23   14   31 1
  24   14   32 1
  25   15   16 ar
  26   15   20 ar
  27   16   17 ar
  28   16   33 1
  29   17   18 ar
  30   17   23 1
  31   18   19 ar
  32   18   21 1
  33   19   20 ar
  34   19   34 1
  35   20   35 1
  36   21   22 1
  37   22   36 1
  38   22   37 1
  39   22   38 1
  40   23   24 1
  41   24   39 1
  42   24   40 1
  43   24   41 1

#	End of record

