#	Name: ASD00100129
#	Creating user name:	WinNT
#	Creation time:	15. 06. 2019 18:30

#	Modifying user name:	WinNT
#	Modification time:	15. 06. 2019 18:30

#	Program:	/corina/corina34_cracker 3.40 0067  02.08.2006

@<TRIPOS>MOLECULE
ASD00100129
  42   44    0    0    0
SMALL
NO_CHARGES


@<TRIPOS>ATOM
   1 N1            -0.0340     1.3986    -0.0285 N.pl3   
   2 C2            -0.0189     0.0182    -0.1334 C.2     
   3 N3             1.0409    -0.7186    -0.3617 N.2     
   4 C4             0.6750    -2.0244    -0.3987 C.2     
   5 C5            -0.6623    -2.0889    -0.1845 C.2     
   6 N6            -1.1009    -0.7979    -0.0107 N.pl3   
   7 C7             1.5784    -3.1778    -0.6323 C.ar    
   8 C8             2.9406    -2.9673    -0.8392 C.ar    
   9 C9             3.7780    -4.0417    -1.0557 C.ar    
  10 C10            3.2654    -5.3316    -1.0675 C.ar    
  11 C11            1.9093    -5.5446    -0.8617 C.ar    
  12 C12            1.0676    -4.4747    -0.6395 C.ar    
  13 O13            4.0930    -6.3883    -1.2815 O.3     
  14 C14            3.4991    -7.6880    -1.2807 C.3     
  15 F15            2.5309    -7.7589    -2.2881 F       
  16 F16            4.4860    -8.6518    -1.5139 F       
  17 F17            2.8990    -7.9259    -0.0395 F       
  18 C18           -2.4791    -0.3778     0.2545 C.3     
  19 C19           -3.3873    -1.5797     0.2138 C.ar    
  20 C20           -3.6320    -2.3016     1.3676 C.ar    
  21 C21           -4.4658    -3.4052     1.3302 C.ar    
  22 C22           -5.0557    -3.7884     0.1399 C.ar    
  23 C23           -4.8137    -3.0706    -1.0151 C.ar    
  24 C24           -3.9829    -1.9597    -0.9796 C.ar    
  25 O25           -3.7484    -1.2487    -2.1138 O.3     
  26 C26           -4.3953    -1.6976    -3.3063 C.3     
  27 Cl27          -2.8924    -1.8234     2.8636 Cl      
  28 H28            0.7985     1.8958    -0.0518 H       
  29 H29           -0.8773     1.8687     0.0644 H       
  30 H30           -1.2664    -2.9836    -0.1525 H       
  31 H31            3.3400    -1.9639    -0.8305 H       
  32 H32            4.8335    -3.8792    -1.2164 H       
  33 H33            1.5134    -6.5494    -0.8719 H       
  34 H34            0.0133    -4.6413    -0.4750 H       
  35 H35           -2.5344     0.0862     1.2392 H       
  36 H36           -2.7924     0.3401    -0.5036 H       
  37 H37           -4.6558    -3.9683     2.2320 H       
  38 H38           -5.7062    -4.6502     0.1131 H       
  39 H39           -5.2747    -3.3709    -1.9445 H       
  40 H40           -4.0799    -2.7169    -3.5291 H       
  41 H41           -5.4758    -1.6745    -3.1642 H       
  42 H42           -4.1238    -1.0438    -4.1351 H       
@<TRIPOS>BOND
   1    1    2 1
   2    1   28 1
   3    1   29 1
   4    2    3 2
   5    2    6 1
   6    3    4 1
   7    4    5 2
   8    4    7 1
   9    5    6 1
  10    5   30 1
  11    6   18 1
  12    7    8 ar
  13    7   12 ar
  14    8    9 ar
  15    8   31 1
  16    9   10 ar
  17    9   32 1
  18   10   11 ar
  19   10   13 1
  20   11   12 ar
  21   11   33 1
  22   12   34 1
  23   13   14 1
  24   14   15 1
  25   14   16 1
  26   14   17 1
  27   18   19 1
  28   18   35 1
  29   18   36 1
  30   19   20 ar
  31   19   24 ar
  32   20   21 ar
  33   20   27 1
  34   21   22 ar
  35   21   37 1
  36   22   23 ar
  37   22   38 1
  38   23   24 ar
  39   23   39 1
  40   24   25 1
  41   25   26 1
  42   26   40 1
  43   26   41 1
  44   26   42 1

#	End of record

