#	Name: ASD01814387
#	Creating user name:	WinNT
#	Creation time:	15. 06. 2019 19:32

#	Modifying user name:	WinNT
#	Modification time:	15. 06. 2019 19:32

#	Program:	/corina/corina34_cracker 3.40 0067  02.08.2006

@<TRIPOS>MOLECULE
ASD01814387
  67   72    0    0    0
SMALL
NO_CHARGES


@<TRIPOS>ATOM
   1 C1            -0.0167     1.3818     0.0096 C.ar    
   2 C2             0.0021    -0.0041     0.0020 C.ar    
   3 C3             1.1970    -0.6935    -0.0127 C.ar    
   4 C4             2.3990     0.0036    -0.0204 C.ar    
   5 C5             2.3750     1.4118    -0.0131 C.ar    
   6 C6             1.1663     2.0939     0.0022 C.ar    
   7 N7             3.6103    -0.6575    -0.0347 N.pl3   
   8 N8             4.7456    -0.0608    -0.0419 N.2     
   9 C9             4.8828     1.2398    -0.0366 C.2     
  10 C10            3.6771     2.1039    -0.0219 C.2     
  11 C11            6.0123     2.1723    -0.0425 C.2     
  12 N12            5.4768     3.4119    -0.0316 N.am    
  13 N13            4.0816     3.3386    -0.0196 N.2     
  14 C14            6.2510     4.6598    -0.0324 C.3     
  15 C15            5.8900     5.4729    -1.2770 C.3     
  16 C16            6.6910     6.7763    -1.2920 C.3     
  17 N17            6.5331     7.5167    -0.0524 N.3     
  18 C18            6.6319     6.8108     1.2116 C.3     
  19 C19            5.8876     5.4781     1.2059 C.3     
  20 C20            3.5988    -2.1224    -0.0414 C.3     
  21 C21            3.5818    -2.6181    -1.4645 C.ar    
  22 C22            4.7722    -2.8544    -2.1271 C.ar    
  23 C23            4.7598    -3.3083    -3.4315 C.ar    
  24 C24            3.5505    -3.5277    -4.0773 C.ar    
  25 C25            2.3569    -3.2899    -3.4092 C.ar    
  26 C26            2.3757    -2.8411    -2.1031 C.ar    
  27 N27            3.5347    -3.9879    -5.4013 N.pl3   
  28 C28            2.4325    -4.2410    -6.1428 C.2     
  29 C29            2.8438    -4.6658    -7.3599 C.2     
  30 C30            4.2430    -4.6730    -7.3636 C.2     
  31 N31            4.6578    -4.2612    -6.1926 N.2     
  32 O32            7.1981     1.8866    -0.0544 O.2     
  33 C33            8.0911     6.5873     1.6201 C.3     
  34 C34            5.9847     7.6965     2.3012 C.3     
  35 C35            8.1593     6.4863    -1.6039 C.3     
  36 C36            6.1365     7.6462    -2.4418 C.3     
  37 H37           -0.9605     1.9069     0.0170 H       
  38 H38           -0.9294    -0.5506     0.0080 H       
  39 H39            1.1982    -1.7735    -0.0178 H       
  40 H40            1.1511     3.1738     0.0077 H       
  41 H41            7.3101     4.4173    -0.0297 H       
  42 H42            6.1240     4.8931    -2.1709 H       
  43 H43            4.8236     5.7022    -1.2656 H       
  44 H44            7.0587     8.3780    -0.0526 H       
  45 H45            4.8106     5.6645     1.2127 H       
  46 H46            6.1498     4.9122     2.1033 H       
  47 H47            4.4906    -2.4951     0.4625 H       
  48 H48            2.7107    -2.4812     0.4789 H       
  49 H49            5.7126    -2.6836    -1.6243 H       
  50 H50            5.6899    -3.4920    -3.9488 H       
  51 H51            1.4146    -3.4593    -3.9090 H       
  52 H52            1.4475    -2.6559    -1.5829 H       
  53 H53            1.4080    -4.1254    -5.8211 H       
  54 H54            2.2048    -4.9493    -8.1832 H       
  55 H55            4.8723    -4.9639    -8.1917 H       
  56 H56            8.5909     7.5504     1.7240 H       
  57 H57            8.1248     6.0561     2.5713 H       
  58 H58            8.5959     5.9965     0.8559 H       
  59 H59            4.9394     7.8763     2.0497 H       
  60 H60            6.0447     7.1897     3.2643 H       
  61 H61            6.5137     8.6479     2.3576 H       
  62 H62            8.2357     6.0080    -2.5804 H       
  63 H63            8.7204     7.4207    -1.6122 H       
  64 H64            8.5686     5.8234    -0.8416 H       
  65 H65            5.0801     7.8495    -2.2667 H       
  66 H66            6.6856     8.5869    -2.4830 H       
  67 H67            6.2527     7.1160    -3.3871 H       
@<TRIPOS>BOND
   1    1    2 ar
   2    1    6 ar
   3    1   37 1
   4    2    3 ar
   5    2   38 1
   6    3    4 ar
   7    3   39 1
   8    4    5 ar
   9    4    7 1
  10    5    6 ar
  11    5   10 1
  12    6   40 1
  13    7    8 1
  14    7   20 1
  15    8    9 2
  16    9   10 1
  17    9   11 1
  18   10   13 2
  19   11   12 am
  20   11   32 2
  21   12   13 1
  22   12   14 1
  23   14   15 1
  24   14   19 1
  25   14   41 1
  26   15   16 1
  27   15   42 1
  28   15   43 1
  29   16   17 1
  30   16   35 1
  31   16   36 1
  32   17   18 1
  33   17   44 1
  34   18   19 1
  35   18   33 1
  36   18   34 1
  37   19   45 1
  38   19   46 1
  39   20   21 1
  40   20   47 1
  41   20   48 1
  42   21   22 ar
  43   21   26 ar
  44   22   23 ar
  45   22   49 1
  46   23   24 ar
  47   23   50 1
  48   24   25 ar
  49   24   27 1
  50   25   26 ar
  51   25   51 1
  52   26   52 1
  53   27   28 1
  54   27   31 1
  55   28   29 2
  56   28   53 1
  57   29   30 1
  58   29   54 1
  59   30   31 2
  60   30   55 1
  61   33   56 1
  62   33   57 1
  63   33   58 1
  64   34   59 1
  65   34   60 1
  66   34   61 1
  67   35   62 1
  68   35   63 1
  69   35   64 1
  70   36   65 1
  71   36   66 1
  72   36   67 1

#	End of record

