#	Name: ASD09116418
#	Creating user name:	WinNT
#	Creation time:	15. 06. 2019 21:21

#	Modifying user name:	WinNT
#	Modification time:	15. 06. 2019 21:21

#	Program:	/corina/corina34_cracker 3.40 0067  02.08.2006

@<TRIPOS>MOLECULE
ASD09116418
  79   85    0    0    0
SMALL
NO_CHARGES


@<TRIPOS>ATOM
   1 N1            -0.0590     1.5275    -0.5290 N.2     
   2 N2            -0.0821     0.2489    -1.1091 N.pl3   
   3 C3             1.1949     1.9113    -0.4983 C.2     
   4 N4             1.9590     0.9474    -1.0255 N.2     
   5 C5             1.2029    -0.0628    -1.3989 C.2     
   6 N6             1.6431    -1.2351    -1.9833 N.pl3   
   7 C7            -1.2076    -0.5442    -1.3403 C.ar    
   8 N8             1.6572     3.1283     0.0023 N.pl3   
   9 C9             3.0333     3.3746     0.0833 C.ar    
  10 C10            3.5138     4.6735    -0.0243 C.ar    
  11 C11            3.9167     2.3212     0.2769 C.ar    
  12 C12            5.2746     2.5634     0.3578 C.ar    
  13 C13            5.7565     3.8596     0.2453 C.ar    
  14 C14            4.8719     4.9162     0.0561 C.ar    
  15 N15           -1.1866    -1.4612    -2.2959 N.ar    
  16 N16           -2.1986    -2.2101    -2.5560 N.ar    
  17 C17           -3.3307    -2.1064    -1.8787 C.ar    
  18 C18           -3.4382    -1.1802    -0.8373 C.ar    
  19 C19           -2.3541    -0.3745    -0.5600 C.ar    
  20 C20           -4.5158    -2.9302    -2.2118 C.ar    
  21 C21           -5.7519    -2.3011    -2.3693 C.ar    
  22 C22           -5.8380    -0.8040    -2.2528 C.3     
  23 C23           -5.7904    -0.3553    -0.7947 C.3     
  24 C24           -4.7031    -1.1080    -0.0324 C.3     
  25 C25           -4.4118    -4.3087    -2.3632 C.ar    
  26 C26           -5.5397    -5.0521    -2.6511 C.ar    
  27 C27           -6.7677    -4.4275    -2.7856 C.ar    
  28 C28           -6.8734    -3.0534    -2.6443 C.ar    
  29 F29            5.3406     6.1786    -0.0535 F       
  30 N30            7.1338     4.1049     0.3278 N.3     
  31 C31            7.6701     3.6642     1.6219 C.3     
  32 C32            9.1393     4.0777     1.7342 C.3     
  33 C33            9.9323     3.4423     0.5887 C.3     
  34 C34            9.3235     3.8788    -0.7467 C.3     
  35 C35            7.8490     3.4710    -0.7871 C.3     
  36 Cl36          -8.1828    -5.3710    -3.1333 Cl      
  37 N37           11.3321     3.8826     0.6574 N.3     
  38 C38           12.1491     3.2000    -0.3556 C.3     
  39 C39           13.5792     3.7429    -0.3042 C.3     
  40 N40           14.1314     3.5345     1.0416 N.3     
  41 C41           13.3144     4.2172     2.0545 C.3     
  42 C42           11.8843     3.6743     2.0032 C.3     
  43 C43           15.5312     3.9748     1.1102 C.3     
  44 H44            2.5891    -1.3674    -2.1524 H       
  45 H45            1.0061    -1.9258    -2.2245 H       
  46 H46            1.0256     3.8040     0.2944 H       
  47 H47            2.8263     5.4934    -0.1711 H       
  48 H48            3.5423     1.3120     0.3646 H       
  49 H49            5.9610     1.7435     0.5091 H       
  50 H50           -2.3928     0.3661     0.2252 H       
  51 H51           -5.0028    -0.3558    -2.7912 H       
  52 H52           -6.7723    -0.4646    -2.7000 H       
  53 H53           -5.5819     0.7139    -0.7549 H       
  54 H54           -6.7559    -0.5495    -0.3278 H       
  55 H55           -5.0499    -2.1189     0.1817 H       
  56 H56           -4.5015    -0.5925     0.9066 H       
  57 H57           -3.4538    -4.7956    -2.2559 H       
  58 H58           -5.4633    -6.1226    -2.7718 H       
  59 H59           -7.8344    -2.5719    -2.7492 H       
  60 H60            7.1001     4.1265     2.4277 H       
  61 H61            7.5913     2.5796     1.6973 H       
  62 H62            9.2175     5.1632     1.6727 H       
  63 H63            9.5414     3.7368     2.6882 H       
  64 H64            9.8865     2.3565     0.6724 H       
  65 H65            9.4046     4.9611    -0.8472 H       
  66 H66            9.8572     3.3957    -1.5651 H       
  67 H67            7.7693     2.3873    -0.7004 H       
  68 H68            7.4088     3.7930    -1.7308 H       
  69 H69           12.1593     2.1290    -0.1532 H       
  70 H70           11.7273     3.3796    -1.3445 H       
  71 H71           14.1941     3.2176    -1.0350 H       
  72 H72           13.5720     4.8085    -0.5334 H       
  73 H73           13.7362     4.0376     3.0434 H       
  74 H74           13.3042     5.2882     1.8522 H       
  75 H75           11.2694     4.1996     2.7339 H       
  76 H76           11.8915     2.6086     2.2323 H       
  77 H77           15.5906     5.0361     0.8685 H       
  78 H78           15.9152     3.8094     2.1168 H       
  79 H79           16.1265     3.4058     0.3962 H       
@<TRIPOS>BOND
   1    1    2 1
   2    1    3 2
   3    2    7 1
   4    2    5 1
   5    3    4 1
   6    3    8 1
   7    4    5 2
   8    5    6 1
   9    6   44 1
  10    6   45 1
  11    7   15 ar
  12    7   19 ar
  13    8    9 1
  14    8   46 1
  15    9   10 ar
  16    9   11 ar
  17   10   14 ar
  18   10   47 1
  19   11   12 ar
  20   11   48 1
  21   12   13 ar
  22   12   49 1
  23   13   14 ar
  24   13   30 1
  25   14   29 1
  26   15   16 ar
  27   16   17 ar
  28   17   18 ar
  29   17   20 1
  30   18   19 ar
  31   18   24 1
  32   19   50 1
  33   20   21 ar
  34   20   25 ar
  35   21   22 1
  36   21   28 ar
  37   22   23 1
  38   22   51 1
  39   22   52 1
  40   23   24 1
  41   23   53 1
  42   23   54 1
  43   24   55 1
  44   24   56 1
  45   25   26 ar
  46   25   57 1
  47   26   27 ar
  48   26   58 1
  49   27   28 ar
  50   27   36 1
  51   28   59 1
  52   30   31 1
  53   30   35 1
  54   31   32 1
  55   31   60 1
  56   31   61 1
  57   32   33 1
  58   32   62 1
  59   32   63 1
  60   33   34 1
  61   33   37 1
  62   33   64 1
  63   34   35 1
  64   34   65 1
  65   34   66 1
  66   35   67 1
  67   35   68 1
  68   37   38 1
  69   37   42 1
  70   38   39 1
  71   38   69 1
  72   38   70 1
  73   39   40 1
  74   39   71 1
  75   39   72 1
  76   40   41 1
  77   40   43 1
  78   41   42 1
  79   41   73 1
  80   41   74 1
  81   42   75 1
  82   42   76 1
  83   43   77 1
  84   43   78 1
  85   43   79 1

#	End of record

