#	Name: ASD01900859
#	Creating user name:	WinNT
#	Creation time:	15. 06. 2019 19:52

#	Modifying user name:	WinNT
#	Modification time:	15. 06. 2019 19:52

#	Program:	/corina/corina34_cracker 3.40 0067  02.08.2006

@<TRIPOS>MOLECULE
ASD01900859
  33   36    0    0    0
SMALL
NO_CHARGES


@<TRIPOS>ATOM
   1 C1            -0.0180     1.3872    -0.0028 C.ar    
   2 N2             0.0021    -0.0041     0.0020 N.pl3   
   3 C3            -1.1840    -0.7144     0.1142 C.2     
   4 N4            -1.2975    -2.0043     0.0271 N.2     
   5 C5            -2.5151    -2.5109     0.1609 C.2     
   6 C6            -3.4927    -1.6149     0.3727 C.2     
   7 S7            -2.7708    -0.0077     0.4048 S.3     
   8 C8            -2.7802    -3.9704     0.0815 C.2     
   9 C9            -1.8223    -4.9791    -0.1365 C.2     
  10 N10           -2.4390    -6.1316    -0.1405 N.2     
  11 N11           -3.8042    -5.9060     0.0730 N.pl3   
  12 C12           -3.9946    -4.5769     0.2123 C.2     
  13 N13           -1.1774     2.0267    -0.0059 N.ar    
  14 C14           -1.2406     3.3447    -0.0100 C.ar    
  15 C15           -0.0908     4.1086    -0.0117 C.ar    
  16 C16            1.1458     3.4766    -0.0085 C.ar    
  17 C17            1.1804     2.0940     0.0016 C.ar    
  18 C18           -0.3431    -4.7669    -0.3313 C.3     
  19 C19            0.6038    -5.4300     0.6710 C.3     
  20 C20            0.4943    -5.9755    -0.7543 C.3     
  21 H21            0.8455    -0.4772    -0.0731 H       
  22 H22           -4.5406    -1.8408     0.5047 H       
  23 H23           -4.4934    -6.5872     0.1171 H       
  24 H24           -4.9386    -4.0828     0.3889 H       
  25 H25           -2.2044     3.8321    -0.0125 H       
  26 H26           -0.1523     5.1869    -0.0158 H       
  27 H27            2.0599     4.0518    -0.0097 H       
  28 H28            2.1248     1.5700     0.0043 H       
  29 H29           -0.0560    -3.7923    -0.7261 H       
  30 H30            1.5140    -4.8918     0.9354 H       
  31 H31            0.1568    -6.0197     1.4713 H       
  32 H32           -0.0246    -6.9241    -0.8916 H       
  33 H33            1.3326    -5.7962    -1.4275 H       
@<TRIPOS>BOND
   1    1    2 1
   2    1   13 ar
   3    1   17 ar
   4    2    3 1
   5    2   21 1
   6    3    4 2
   7    3    7 1
   8    4    5 1
   9    5    6 2
  10    5    8 1
  11    6    7 1
  12    6   22 1
  13    8    9 1
  14    8   12 2
  15    9   10 2
  16    9   18 1
  17   10   11 1
  18   11   12 1
  19   11   23 1
  20   12   24 1
  21   13   14 ar
  22   14   15 ar
  23   14   25 1
  24   15   16 ar
  25   15   26 1
  26   16   17 ar
  27   16   27 1
  28   17   28 1
  29   18   19 1
  30   18   20 1
  31   18   29 1
  32   19   20 1
  33   19   30 1
  34   19   31 1
  35   20   32 1
  36   20   33 1

#	End of record

