#	Name: ASD01880971
#	Creating user name:	WinNT
#	Creation time:	15. 06. 2019 19:41

#	Modifying user name:	WinNT
#	Modification time:	15. 06. 2019 19:41

#	Program:	/corina/corina34_cracker 3.40 0067  02.08.2006

@<TRIPOS>MOLECULE
ASD01880971
  51   54    0    0    0
SMALL
NO_CHARGES


@<TRIPOS>ATOM
   1 N1            -0.0168     1.3127     0.0133 N.ar    
   2 C2             0.0031    -0.0058     0.0027 C.ar    
   3 N3             1.1346    -0.6838    -0.0157 N.ar    
   4 C4             2.3040    -0.0601    -0.0244 C.ar    
   5 C5             2.3316     1.3208    -0.0139 C.ar    
   6 C6             1.1166     2.0084     0.0056 C.ar    
   7 C7             3.6409     2.0669    -0.0228 C.3     
   8 O8             4.7203     1.1361     0.0791 O.3     
   9 C9             5.9771     1.6482     0.0850 C.ar    
  10 C10            7.0740     0.7969     0.1819 C.ar    
  11 C11            8.3449     1.3150     0.1874 C.ar    
  12 C12            8.5468     2.6965     0.0961 C.ar    
  13 C13            7.4412     3.5481    -0.0011 C.ar    
  14 C14            6.1672     3.0208    -0.0114 C.ar    
  15 C15            9.7148     0.6898     0.2768 C.3     
  16 N16           10.6747     1.7987     0.2297 N.am    
  17 C17            9.9962     2.9542     0.1255 C.2     
  18 O18           10.5068     4.0559     0.0639 O.2     
  19 Cl19          -1.5008    -0.8730     0.0140 Cl      
  20 Cl20           7.6730     5.2648    -0.1146 Cl      
  21 N21            1.0920     3.3935     0.0163 N.3     
  22 C22            0.5158     3.8959    -1.1620 C.3     
  23 C23            0.6577     5.4307    -1.2501 C.3     
  24 C24           -0.3308     6.0730    -0.3109 C.3     
  25 O25            0.2188     6.3157     1.0003 O.3     
  26 C26            1.0454     5.2704     1.5442 C.3     
  27 C27            0.4807     3.9021     1.2598 C.3     
  28 C28           12.6872     1.5205    -1.1318 C.3     
  29 C29           12.1327     1.6677     0.2866 C.3     
  30 H30            3.2244    -0.6248    -0.0392 H       
  31 H31            3.7324     2.6291    -0.9521 H       
  32 H32            3.6730     2.7544     0.8225 H       
  33 H33            6.9252    -0.2704     0.2530 H       
  34 H34            5.3135     3.6781    -0.0867 H       
  35 H35            9.8175     0.1448     1.2151 H       
  36 H36            9.8761     0.0185    -0.5667 H       
  37 H37            1.0094     3.4424    -2.0216 H       
  38 H38           -0.5422     3.6342    -1.1810 H       
  39 H39            1.6699     5.7199    -0.9673 H       
  40 H40            0.4561     5.7573    -2.2703 H       
  41 H41           -0.6549     7.0223    -0.7372 H       
  42 H42           -1.1980     5.4199    -0.2130 H       
  43 H43            2.0411     5.3414     1.1064 H       
  44 H44            1.1234     5.4049     2.6231 H       
  45 H45           -0.6000     3.9705     1.1353 H       
  46 H46            0.7156     3.2300     2.0851 H       
  47 H47           12.2606     0.6326    -1.5984 H       
  48 H48           12.4241     2.4010    -1.7180 H       
  49 H49           13.7720     1.4231    -1.0895 H       
  50 H50           12.5594     2.5556     0.7532 H       
  51 H51           12.3959     0.7872     0.8727 H       
@<TRIPOS>BOND
   1    1    2 ar
   2    1    6 ar
   3    2    3 ar
   4    2   19 1
   5    3    4 ar
   6    4    5 ar
   7    4   30 1
   8    5    6 ar
   9    5    7 1
  10    6   21 1
  11    7    8 1
  12    7   31 1
  13    7   32 1
  14    8    9 1
  15    9   10 ar
  16    9   14 ar
  17   10   11 ar
  18   10   33 1
  19   11   12 ar
  20   11   15 1
  21   12   13 ar
  22   12   17 1
  23   13   14 ar
  24   13   20 1
  25   14   34 1
  26   15   16 1
  27   15   35 1
  28   15   36 1
  29   16   17 am
  30   16   29 1
  31   17   18 2
  32   21   22 1
  33   21   27 1
  34   22   23 1
  35   22   37 1
  36   22   38 1
  37   23   24 1
  38   23   39 1
  39   23   40 1
  40   24   25 1
  41   24   41 1
  42   24   42 1
  43   25   26 1
  44   26   27 1
  45   26   43 1
  46   26   44 1
  47   27   45 1
  48   27   46 1
  49   28   29 1
  50   28   47 1
  51   28   48 1
  52   28   49 1
  53   29   50 1
  54   29   51 1

#	End of record

