#	Name: ASD01120255
#	Creating user name:	WinNT
#	Creation time:	15. 06. 2019 18:59

#	Modifying user name:	WinNT
#	Modification time:	15. 06. 2019 18:59

#	Program:	/corina/corina34_cracker 3.40 0067  02.08.2006

@<TRIPOS>MOLECULE
ASD01120255
  54   55    0    0    0
SMALL
NO_CHARGES


@<TRIPOS>ATOM
   1 C1            -0.0167     1.3791     0.0096 C.ar    
   2 C2             0.0021    -0.0041     0.0020 C.ar    
   3 C3            -1.1857    -0.7112     0.0100 C.ar    
   4 C4            -2.3919    -0.0365     0.0257 C.ar    
   5 C5            -2.4113     1.3460     0.0333 C.ar    
   6 C6            -1.2245     2.0540     0.0306 C.ar    
   7 S7            -3.9495     2.2052     0.0532 S.o2    
   8 N8            -4.3617     2.4358     1.6404 N.am    
   9 C9            -3.6007     3.2226     2.4268 C.2     
  10 N10           -3.9362     3.4102     3.7186 N.am    
  11 O11           -3.6957     3.4949    -0.4869 O.2     
  12 O12           -4.9146     1.3128    -0.4865 O.2     
  13 O13           -2.6116     3.7631     1.9709 O.2     
  14 C14           -3.3312    11.7569    13.5087 C.ar    
  15 C15           -3.8937    13.0202    13.4749 C.ar    
  16 C16           -5.2535    13.1659    13.2730 C.ar    
  17 C17           -6.0510    12.0495    13.1049 C.ar    
  18 C18           -5.4893    10.7866    13.1386 C.ar    
  19 C19           -4.1293    10.6399    13.3351 C.ar    
  20 S20           -6.5068     9.3641    12.9241 S.o2    
  21 N21           -6.5509     9.0330    11.3022 N.am    
  22 C22           -5.4260     8.6618    10.6593 C.2     
  23 N23           -5.4620     8.3923     9.3393 N.am    
  24 O24           -5.8180     8.2822    13.5360 O.2     
  25 O25           -7.8234     9.7537    13.2901 O.2     
  26 O26           -4.3788     8.5701    11.2702 O.2     
  27 Cl27          -1.6236    11.5732    13.7617 Cl      
  28 Cl28           1.4746     2.2678     0.0002 Cl      
  29 C29           -4.2392     7.9888     8.6405 C.3     
  30 C30           -4.5531     7.7447     7.1630 C.3     
  31 S31           -3.0390     7.2451     6.2978 S.3     
  32 C32           -3.7059     4.3089     5.9815 C.3     
  33 C33           -3.1091     4.2655     4.5734 C.3     
  34 S34           -2.6818     5.3679     7.0400 S.3     
  35 H35            0.9445    -0.5314    -0.0105 H       
  36 H36           -1.1712    -1.7911     0.0037 H       
  37 H37           -3.3197    -0.5894     0.0316 H       
  38 H38           -1.2398     3.1339     0.0365 H       
  39 H39           -5.1507     2.0046     2.0041 H       
  40 H40           -4.7253     2.9790     4.0823 H       
  41 H41           -3.2707    13.8925    13.6066 H       
  42 H42           -5.6928    14.1521    13.2469 H       
  43 H43           -7.1133    12.1638    12.9475 H       
  44 H44           -3.6907     9.6533    13.3614 H       
  45 H45           -7.3864     9.1061    10.8148 H       
  46 H46           -6.2974     8.4655     8.8519 H       
  47 H47           -3.4934     8.7789     8.7277 H       
  48 H48           -3.8517     7.0726     9.0858 H       
  49 H49           -5.2989     6.9546     7.0758 H       
  50 H50           -4.9406     8.6610     6.7177 H       
  51 H51           -4.7178     4.7116     5.9350 H       
  52 H52           -3.7347     3.3009     6.3952 H       
  53 H53           -2.0973     3.8628     4.6199 H       
  54 H54           -3.0803     5.2735     4.1597 H       
@<TRIPOS>BOND
   1    1    2 ar
   2    1   28 1
   3    1    6 ar
   4    2    3 ar
   5    2   35 1
   6    3    4 ar
   7    3   36 1
   8    4    5 ar
   9    4   37 1
  10    5    6 ar
  11    5    7 1
  12    6   38 1
  13    7    8 am
  14    7   11 2
  15    7   12 2
  16    8    9 am
  17    8   39 1
  18    9   10 am
  19    9   13 2
  20   10   33 1
  21   10   40 1
  22   14   15 ar
  23   14   27 1
  24   14   19 ar
  25   15   16 ar
  26   15   41 1
  27   16   17 ar
  28   16   42 1
  29   17   18 ar
  30   17   43 1
  31   18   19 ar
  32   18   20 1
  33   19   44 1
  34   20   21 am
  35   20   24 2
  36   20   25 2
  37   21   22 am
  38   21   45 1
  39   22   23 am
  40   22   26 2
  41   23   29 1
  42   23   46 1
  43   29   30 1
  44   29   47 1
  45   29   48 1
  46   30   31 1
  47   30   49 1
  48   30   50 1
  49   31   34 1
  50   32   33 1
  51   32   34 1
  52   32   51 1
  53   32   52 1
  54   33   53 1
  55   33   54 1

#	End of record

