#	Name: ASD08070258
#	Creating user name:	WinNT
#	Creation time:	15. 06. 2019 21:14

#	Modifying user name:	WinNT
#	Modification time:	15. 06. 2019 21:14

#	Program:	/corina/corina34_cracker 3.40 0067  02.08.2006

@<TRIPOS>MOLECULE
ASD08070258
  45   45    0    0    0
SMALL
NO_CHARGES


@<TRIPOS>ATOM
   1 C1             0.2240     1.5397    -0.0205 C.2     
   2 C2             0.3328     0.0677    -0.0162 C.ar    
   3 C3             1.5888    -0.5422    -0.0758 C.ar    
   4 C4             1.6861    -1.9155    -0.0717 C.ar    
   5 C5             0.5370    -2.6954    -0.0089 C.ar    
   6 C6            -0.7139    -2.0928     0.0505 C.ar    
   7 C7            -0.8193    -0.7196     0.0531 C.ar    
   8 O8             1.2280     2.2233    -0.0758 O.2     
   9 N9            -0.9884     2.1260     0.0315 N.am    
  10 C10            3.0400    -2.5743    -0.1360 C.3     
  11 C11           -1.0934     3.5827     0.1465 C.3     
  12 C12           -0.9143     4.2175    -1.2340 C.3     
  13 C13           -0.9421     5.7415    -1.1020 C.3     
  14 C14            0.2713     6.2056    -0.2938 C.3     
  15 C15           -0.9001     6.3749    -2.4941 C.3     
  16 C16           -2.4697     3.9525     0.7032 C.3     
  17 O17           -3.4800     3.5734    -0.2336 O.3     
  18 C18           -4.8102     3.8764     0.1918 C.3     
  19 O19            0.6369    -4.0488    -0.0059 O.3     
  20 C20           -0.5834    -4.7894     0.0603 C.3     
  21 H21            2.4820     0.0630    -0.1254 H       
  22 H22           -1.6043    -2.7021     0.0993 H       
  23 H23           -1.7915    -0.2520     0.1038 H       
  24 H24           -1.7916     1.5834    -0.0073 H       
  25 H25            3.4184    -2.7263     0.8749 H       
  26 H26            2.9521    -3.5369    -0.6397 H       
  27 H27            3.7286    -1.9360    -0.6896 H       
  28 H28           -0.3186     3.9508     0.8190 H       
  29 H29            0.0416     3.9067    -1.6556 H       
  30 H30           -1.7228     3.8948    -1.8900 H       
  31 H31           -1.8562     6.0455    -0.5920 H       
  32 H32            0.2858     5.6917     0.6673 H       
  33 H33            1.1838     5.9745    -0.8433 H       
  34 H34            0.2086     7.2814    -0.1296 H       
  35 H35           -1.7645     6.0442    -3.0699 H       
  36 H36           -0.9199     7.4606    -2.4001 H       
  37 H37            0.0140     6.0709    -3.0042 H       
  38 H38           -2.6331     3.4292     1.6453 H       
  39 H39           -2.5162     5.0283     0.8723 H       
  40 H40           -5.0221     3.3515     1.1233 H       
  41 H41           -4.9052     4.9506     0.3502 H       
  42 H42           -5.5178     3.5580    -0.5738 H       
  43 H43           -1.1147    -4.5329     0.9769 H       
  44 H44           -1.2048    -4.5435    -0.8008 H       
  45 H45           -0.3616    -5.8565     0.0554 H       
@<TRIPOS>BOND
   1    1    2 1
   2    1    8 2
   3    1    9 am
   4    2    3 ar
   5    2    7 ar
   6    3    4 ar
   7    3   21 1
   8    4    5 ar
   9    4   10 1
  10    5    6 ar
  11    5   19 1
  12    6    7 ar
  13    6   22 1
  14    7   23 1
  15    9   11 1
  16    9   24 1
  17   10   25 1
  18   10   26 1
  19   10   27 1
  20   11   12 1
  21   11   16 1
  22   11   28 1
  23   12   13 1
  24   12   29 1
  25   12   30 1
  26   13   14 1
  27   13   15 1
  28   13   31 1
  29   14   32 1
  30   14   33 1
  31   14   34 1
  32   15   35 1
  33   15   36 1
  34   15   37 1
  35   16   17 1
  36   16   38 1
  37   16   39 1
  38   17   18 1
  39   18   40 1
  40   18   41 1
  41   18   42 1
  42   19   20 1
  43   20   43 1
  44   20   44 1
  45   20   45 1

#	End of record

