#	Name: ASD01150342
#	Creating user name:	WinNT
#	Creation time:	15. 06. 2019 19:04

#	Modifying user name:	WinNT
#	Modification time:	15. 06. 2019 19:04

#	Program:	/corina/corina34_cracker 3.40 0067  02.08.2006

@<TRIPOS>MOLECULE
ASD01150342
  63   66    0    0    0
SMALL
NO_CHARGES


@<TRIPOS>ATOM
   1 N1            -0.0169     1.3927     0.0097 N.pl3   
   2 C2             0.0021    -0.0041     0.0020 C.2     
   3 C3            -1.3283    -0.4051     0.0131 C.2     
   4 N4            -2.0859     0.6952     0.0265 N.2     
   5 C5            -1.3234     1.7684     0.0302 C.2     
   6 C6             1.1388    -0.8368    -0.0141 C.2     
   7 C7             1.0964     2.2430     0.0036 C.ar    
   8 C8             1.3307     3.0747    -1.0833 C.ar    
   9 C9             2.4293     3.9118    -1.0863 C.ar    
  10 C10            3.2954     3.9222    -0.0084 C.ar    
  11 C11            3.0648     3.0951     1.0755 C.ar    
  12 C12            1.9648     2.2599     1.0870 C.ar    
  13 N13           -1.7777     3.0670     0.0433 N.3     
  14 C14           -3.2460     3.1110     0.0522 C.3     
  15 C15           -1.2218     3.8077     1.1836 C.3     
  16 O16            1.0068    -2.0474    -0.0193 O.2     
  17 O17            2.3746    -0.2923    -0.0240 O.3     
  18 C18            3.4816    -1.1959    -0.0402 C.3     
  19 C19            3.4077    -2.0704    -1.2934 C.3     
  20 C20            4.7888    -0.4008    -0.0494 C.3     
  21 C21            3.4334    -2.0838     1.2049 C.3     
  22 N22           -1.7883    -1.7160     0.0106 N.am    
  23 C23           -3.1128    -1.9654     0.0224 C.2     
  24 O24           -3.9056    -1.0424     0.0353 O.2     
  25 C25           -3.5983    -3.3490     0.0198 C.2     
  26 C26           -4.9095    -3.7448     0.0307 C.2     
  27 N27           -5.0739    -5.0401     0.0249 N.2     
  28 C28           -4.0008    -5.7792     0.0099 C.2     
  29 S29           -2.5997    -4.8004    -0.0056 S.3     
  30 C30           -6.0602    -2.7717     0.0483 C.3     
  31 C31           -3.9960    -7.2576     0.0022 C.ar    
  32 N32           -5.1448    -7.9293     0.0106 N.ar    
  33 C33           -5.1353    -9.2487     0.0037 C.ar    
  34 C34           -3.9325    -9.9357    -0.0119 C.ar    
  35 N35           -2.7878    -9.2742    -0.0199 N.ar    
  36 C36           -2.7859    -7.9545    -0.0198 C.ar    
  37 H37            0.6549     3.0667    -1.9256 H       
  38 H38            2.6122     4.5587    -1.9316 H       
  39 H39            4.1539     4.5775    -0.0132 H       
  40 H40            3.7430     3.1055     1.9160 H       
  41 H41            1.7852     1.6141     1.9339 H       
  42 H42           -3.6193     2.6011     0.9404 H       
  43 H43           -3.5783     4.1490     0.0625 H       
  44 H44           -3.6298     2.6154    -0.8395 H       
  45 H45           -0.1340     3.8186     1.1143 H       
  46 H46           -1.5970     4.8309     1.1699 H       
  47 H47           -1.5218     3.3231     2.1127 H       
  48 H48            3.4420    -1.4378    -2.1804 H       
  49 H49            4.2521    -2.7596    -1.3058 H       
  50 H50            2.4764    -2.6368    -1.2869 H       
  51 H51            4.8414     0.2222     0.8435 H       
  52 H52            5.6331    -1.0901    -0.0618 H       
  53 H53            4.8231     0.2317    -0.9364 H       
  54 H54            2.5022    -2.6502     1.2114 H       
  55 H55            4.2778    -2.7730     1.1925 H       
  56 H56            3.4861    -1.4607     2.0977 H       
  57 H57           -1.1563    -2.4518     0.0004 H       
  58 H58           -6.3480    -2.5309    -0.9750 H       
  59 H59           -6.9070    -3.2198     0.5681 H       
  60 H60           -5.7577    -1.8607     0.5647 H       
  61 H61           -6.0674    -9.7942     0.0105 H       
  62 H62           -3.9299   -11.0157    -0.0172 H       
  63 H63           -1.8505    -7.4146    -0.0267 H       
@<TRIPOS>BOND
   1    1    2 1
   2    1    7 1
   3    1    5 1
   4    2    3 2
   5    2    6 1
   6    3    4 1
   7    3   22 1
   8    4    5 2
   9    5   13 1
  10    6   16 2
  11    6   17 1
  12    7    8 ar
  13    7   12 ar
  14    8    9 ar
  15    8   37 1
  16    9   10 ar
  17    9   38 1
  18   10   11 ar
  19   10   39 1
  20   11   12 ar
  21   11   40 1
  22   12   41 1
  23   13   14 1
  24   13   15 1
  25   14   42 1
  26   14   43 1
  27   14   44 1
  28   15   45 1
  29   15   46 1
  30   15   47 1
  31   17   18 1
  32   18   19 1
  33   18   20 1
  34   18   21 1
  35   19   48 1
  36   19   49 1
  37   19   50 1
  38   20   51 1
  39   20   52 1
  40   20   53 1
  41   21   54 1
  42   21   55 1
  43   21   56 1
  44   22   23 am
  45   22   57 1
  46   23   24 2
  47   23   25 1
  48   25   26 2
  49   25   29 1
  50   26   27 1
  51   26   30 1
  52   27   28 2
  53   28   29 1
  54   28   31 1
  55   30   58 1
  56   30   59 1
  57   30   60 1
  58   31   32 ar
  59   31   36 ar
  60   32   33 ar
  61   33   34 ar
  62   33   61 1
  63   34   35 ar
  64   34   62 1
  65   35   36 ar
  66   36   63 1

#	End of record

