#	Name: ASD01884309
#	Creating user name:	WinNT
#	Creation time:	15. 06. 2019 19:47

#	Modifying user name:	WinNT
#	Modification time:	15. 06. 2019 19:47

#	Program:	/corina/corina34_cracker 3.40 0067  02.08.2006

@<TRIPOS>MOLECULE
ASD01884309
  48   50    0    0    0
SMALL
NO_CHARGES


@<TRIPOS>ATOM
   1 C1             1.0496     1.1872     0.8338 C.ar    
   2 C2             1.0587    -0.1660     0.5645 C.ar    
   3 N3             1.2235    -0.6091    -0.6675 N.ar    
   4 C4             1.3856     0.2122    -1.6875 C.ar    
   5 C5             1.3890     1.5792    -1.5009 C.ar    
   6 C6             1.2175     2.0876    -0.2155 C.ar    
   7 C7             0.8785    -1.1502     1.6914 C.3     
   8 C8             1.5697    -0.3500    -3.0736 C.3     
   9 O9             1.2145     3.4263     0.0088 O.3     
  10 C10            0.0311     4.0848    -0.0812 C.ar    
  11 C11           -0.0020     5.4723     0.0270 C.ar    
  12 C12           -1.1449     3.3732    -0.2870 C.ar    
  13 C13           -2.3474     4.0383    -0.3788 C.ar    
  14 C14           -2.3856     5.4287    -0.2652 C.ar    
  15 C15           -1.2035     6.1430    -0.0643 C.ar    
  16 F16            1.1432     6.1620     0.2219 F       
  17 B17           -3.7554     6.1888    -0.3696 Du      
  18 O18           -3.9802     7.6028    -0.2770 O.3     
  19 O19           -5.0558     5.6221    -0.5847 O.3     
  20 C20           -5.9322     6.3828     0.2731 C.3     
  21 C21           -5.2009     7.7296     0.4824 C.3     
  22 C22           -7.2816     6.6111    -0.4110 C.3     
  23 C23           -6.1257     5.6638     1.6097 C.3     
  24 C24           -4.8881     7.9417     1.9650 C.3     
  25 C25           -6.0472     8.8851    -0.0557 C.3     
  26 H26            0.9098     1.5434     1.8438 H       
  27 H27            1.5228     2.2460    -2.3399 H       
  28 H28           -0.1823    -1.3657     1.8195 H       
  29 H29            1.4109    -2.0720     1.4573 H       
  30 H30            1.2766    -0.7246     2.6126 H       
  31 H31            0.5968    -0.4637    -3.5517 H       
  32 H32            2.1867     0.3290    -3.6621 H       
  33 H33            2.0588    -1.3220    -3.0094 H       
  34 H34           -1.1157     2.2972    -0.3753 H       
  35 H35           -3.2604     3.4841    -0.5391 H       
  36 H36           -1.2302     7.2190     0.0240 H       
  37 H37           -7.7572     5.6499    -0.6062 H       
  38 H38           -7.9218     7.2081     0.2384 H       
  39 H39           -7.1269     7.1378    -1.3527 H       
  40 H40           -5.1576     5.5237     2.0905 H       
  41 H41           -6.7684     6.2629     2.2548 H       
  42 H42           -6.5891     4.6926     1.4361 H       
  43 H43           -4.2506     7.1324     2.3212 H       
  44 H44           -4.3735     8.8937     2.0952 H       
  45 H45           -5.8172     7.9500     2.5348 H       
  46 H46           -7.0008     8.9132     0.4715 H       
  47 H47           -5.5185     9.8256     0.0991 H       
  48 H48           -6.2252     8.7395    -1.1212 H       
@<TRIPOS>BOND
   1    1    2 ar
   2    1    6 ar
   3    1   26 1
   4    2    3 ar
   5    2    7 1
   6    3    4 ar
   7    4    5 ar
   8    4    8 1
   9    5    6 ar
  10    5   27 1
  11    6    9 1
  12    7   28 1
  13    7   29 1
  14    7   30 1
  15    8   31 1
  16    8   32 1
  17    8   33 1
  18    9   10 1
  19   10   11 ar
  20   10   12 ar
  21   11   16 1
  22   11   15 ar
  23   12   13 ar
  24   12   34 1
  25   13   14 ar
  26   13   35 1
  27   14   15 ar
  28   14   17 1
  29   15   36 1
  30   17   18 1
  31   17   19 1
  32   18   21 1
  33   19   20 1
  34   20   21 1
  35   20   22 1
  36   20   23 1
  37   21   24 1
  38   21   25 1
  39   22   37 1
  40   22   38 1
  41   22   39 1
  42   23   40 1
  43   23   41 1
  44   23   42 1
  45   24   43 1
  46   24   44 1
  47   24   45 1
  48   25   46 1
  49   25   47 1
  50   25   48 1

#	End of record

