#	Name: ASD07300199
#	Creating user name:	WinNT
#	Creation time:	15. 06. 2019 21:09

#	Modifying user name:	WinNT
#	Modification time:	15. 06. 2019 21:09

#	Program:	/corina/corina34_cracker 3.40 0067  02.08.2006

@<TRIPOS>MOLECULE
ASD07300199
  48   52    0    0    0
SMALL
NO_CHARGES


@<TRIPOS>ATOM
   1 C1            -0.0128     1.4059    -0.2489 C.ar    
   2 C2             0.0106     0.0079    -0.2588 C.ar    
   3 C3             1.2258    -0.6509    -0.3712 C.ar    
   4 C4             2.3797     0.1130    -0.4702 C.ar    
   5 C5             2.2826     1.4917    -0.4538 C.ar    
   6 N6             1.1135     2.0928    -0.3458 N.ar    
   7 C7            -2.0985     0.6664    -0.0575 C.2     
   8 N8            -1.3457     1.7803    -0.1219 N.am    
   9 N9            -1.3083    -0.4209    -0.1427 N.am    
  10 O10           -3.3097     0.6450     0.0565 O.2     
  11 C11           -1.8253     3.0974    -0.0693 C.ar    
  12 C12           -3.1871     3.3358     0.0596 C.ar    
  13 C13           -3.6589     4.6340     0.1113 C.ar    
  14 C14           -2.7698     5.6993     0.0343 C.ar    
  15 C15           -1.4104     5.4599    -0.0948 C.ar    
  16 C16           -0.9381     4.1624    -0.1404 C.ar    
  17 O17           -3.2334     6.9769     0.0852 O.3     
  18 C18           -2.3283     7.9775     0.1821 C.2     
  19 N19           -1.0428     7.8127     0.3571 N.2     
  20 C20           -0.4303     9.0246     0.4101 C.ar    
  21 C21           -1.4302     9.9991     0.2540 C.ar    
  22 N22           -2.6205     9.3079     0.1058 N.pl3   
  23 C23            0.8980     9.4229     0.5768 C.ar    
  24 C24            1.2139    10.7632     0.5866 C.ar    
  25 C25            0.2231    11.7211     0.4322 C.ar    
  26 C26           -1.0939    11.3442     0.2671 C.ar    
  27 C27           -3.9477     9.8959    -0.0921 C.3     
  28 F28           -4.9837     4.8671     0.2363 F       
  29 C29           -1.7587    -1.8145    -0.1105 C.3     
  30 C30           -1.7863    -2.3082     1.3374 C.3     
  31 H31            1.2727    -1.7299    -0.3811 H       
  32 H32            3.3441    -0.3648    -0.5589 H       
  33 H33            3.1801     2.0874    -0.5305 H       
  34 H34           -3.8774     2.5073     0.1190 H       
  35 H35           -0.7198     6.2881    -0.1554 H       
  36 H36            0.1216     3.9768    -0.2358 H       
  37 H37            1.6746     8.6823     0.6980 H       
  38 H38            2.2411    11.0707     0.7160 H       
  39 H39            0.4840    12.7691     0.4417 H       
  40 H40           -1.8608    12.0951     0.1469 H       
  41 H41           -4.4162    10.0698     0.8765 H       
  42 H42           -3.8501    10.8425    -0.6237 H       
  43 H43           -4.5642     9.2129    -0.6766 H       
  44 H44           -2.7596    -1.8829    -0.5368 H       
  45 H45           -1.0733    -2.4314    -0.6917 H       
  46 H46           -2.4717    -1.6914     1.9186 H       
  47 H47           -2.1214    -3.3452     1.3614 H       
  48 H48           -0.7854    -2.2399     1.7637 H       
@<TRIPOS>BOND
   1    1    2 ar
   2    1    6 ar
   3    1    8 1
   4    2    3 ar
   5    2    9 1
   6    3    4 ar
   7    3   31 1
   8    4    5 ar
   9    4   32 1
  10    5    6 ar
  11    5   33 1
  12    7    8 am
  13    7    9 am
  14    7   10 2
  15    8   11 1
  16    9   29 1
  17   11   12 ar
  18   11   16 ar
  19   12   13 ar
  20   12   34 1
  21   13   14 ar
  22   13   28 1
  23   14   15 ar
  24   14   17 1
  25   15   16 ar
  26   15   35 1
  27   16   36 1
  28   17   18 1
  29   18   19 2
  30   18   22 1
  31   19   20 1
  32   20   21 ar
  33   20   23 ar
  34   21   22 1
  35   21   26 ar
  36   22   27 1
  37   23   24 ar
  38   23   37 1
  39   24   25 ar
  40   24   38 1
  41   25   26 ar
  42   25   39 1
  43   26   40 1
  44   27   41 1
  45   27   42 1
  46   27   43 1
  47   29   30 1
  48   29   44 1
  49   29   45 1
  50   30   46 1
  51   30   47 1
  52   30   48 1

#	End of record

