#	Name: ASD08710077
#	Creating user name:	WinNT
#	Creation time:	15. 06. 2019 21:19

#	Modifying user name:	WinNT
#	Modification time:	15. 06. 2019 21:19

#	Program:	/corina/corina34_cracker 3.40 0067  02.08.2006

@<TRIPOS>MOLECULE
ASD08710077
  64   66    0    0    0
SMALL
NO_CHARGES


@<TRIPOS>ATOM
   1 N1             0.9523     1.5278     0.7855 N.3     
   2 C2             1.8616     0.5362     1.3783 C.3     
   3 C3             2.8049     0.0053     0.2956 C.3     
   4 O4             3.5093     1.1009    -0.2950 O.3     
   5 C5             2.6543     2.0854    -0.8825 C.3     
   6 C6             1.7095     2.6374     0.1883 C.3     
   7 C7             0.0464     1.9933     1.7234 C.ar    
   8 C8            -0.9022     2.9440     1.3497 C.ar    
   9 C9            -1.7964     3.4016     2.2792 C.ar    
  10 C10           -1.7244     2.8923     3.5851 C.ar    
  11 C11           -0.7486     1.9419     3.8889 C.ar    
  12 N12            0.0896     1.5246     2.9630 N.ar    
  13 C13           -2.6664     3.3553     4.6219 C.2     
  14 O14           -3.2593     2.5466     5.3095 O.2     
  15 N15           -2.8697     4.6748     4.8068 N.am    
  16 C16           -3.8881     5.1491     5.7543 C.3     
  17 C17           -3.2193     6.0943     6.7601 C.3     
  18 N18           -2.4263     7.0846     6.0182 N.am    
  19 C19           -1.4079     6.6103     5.0706 C.3     
  20 C20           -2.0729     5.6650     4.0690 C.3     
  21 S21           -2.6761     8.7058     6.2454 S.o2    
  22 O22           -2.2128     9.3521     5.0678 O.2     
  23 O23           -4.0026     8.8424     6.7364 O.2     
  24 C24           -1.6077     9.2205     7.5486 C.ar    
  25 C25           -0.3314     9.6665     7.2606 C.ar    
  26 C26            0.5068    10.0703     8.2829 C.ar    
  27 C27            0.0685    10.0285     9.5933 C.ar    
  28 C28           -1.2081     9.5833     9.8812 C.ar    
  29 C29           -2.0478     9.1836     8.8585 C.ar    
  30 C30            0.9826    10.4677    10.7080 C.3     
  31 F31            0.8106    11.8366    10.9401 F       
  32 F32            0.6747     9.7551    11.8718 F       
  33 F33            2.3112    10.2193    10.3468 F       
  34 C34           -4.4948     3.9562     6.4959 C.3     
  35 C35           -0.6573     1.3845     5.2860 C.3     
  36 H36            2.4446     1.0051     2.1710 H       
  37 H37            1.2811    -0.2886     1.7918 H       
  38 H38            3.5180    -0.6877     0.7421 H       
  39 H39            2.2260    -0.5106    -0.4704 H       
  40 H40            3.2586     2.8968    -1.2881 H       
  41 H41            2.0710     1.6300    -1.6828 H       
  42 H42            1.0180     3.3464    -0.2670 H       
  43 H43            2.2901     3.1399     0.9619 H       
  44 H44           -0.9309     3.3163     0.3363 H       
  45 H45           -2.5403     4.1383     2.0140 H       
  46 H46           -4.6698     5.6832     5.2142 H       
  47 H47           -3.9834     6.6034     7.3475 H       
  48 H48           -2.5666     5.5234     7.4205 H       
  49 H49           -0.9757     7.4601     4.5423 H       
  50 H50           -0.6262     6.0761     5.6107 H       
  51 H51           -1.3065     5.1558     3.4846 H       
  52 H52           -2.7223     6.2368     3.4062 H       
  53 H53            0.0110     9.6992     6.2368 H       
  54 H54            1.5042    10.4181     8.0580 H       
  55 H55           -1.5504     9.5503    10.9050 H       
  56 H56           -3.0465     8.8393     9.0831 H       
  57 H57           -3.7019     3.3928     6.9879 H       
  58 H58           -5.2031     4.3147     7.2428 H       
  59 H59           -5.0115     3.3112     5.7852 H       
  60 H60           -1.3562     0.5548     5.3926 H       
  61 H61            0.3571     1.0311     5.4706 H       
  62 H62           -0.9068     2.1645     6.0054 H       
  63 Cl63           8.5180    16.8366    16.8718 Cl      
  64 H64            8.5180    18.2066    16.8718 H       
@<TRIPOS>BOND
   1    1    2 1
   2    1    6 1
   3    1    7 1
   4    2    3 1
   5    2   36 1
   6    2   37 1
   7    3    4 1
   8    3   38 1
   9    3   39 1
  10    4    5 1
  11    5    6 1
  12    5   40 1
  13    5   41 1
  14    6   42 1
  15    6   43 1
  16    7    8 ar
  17    7   12 ar
  18    8    9 ar
  19    8   44 1
  20    9   10 ar
  21    9   45 1
  22   10   11 ar
  23   10   13 1
  24   11   12 ar
  25   11   35 1
  26   13   14 2
  27   13   15 am
  28   15   16 1
  29   15   20 1
  30   16   17 1
  31   16   34 1
  32   16   46 1
  33   17   18 1
  34   17   47 1
  35   17   48 1
  36   18   19 1
  37   18   21 am
  38   19   20 1
  39   19   49 1
  40   19   50 1
  41   20   51 1
  42   20   52 1
  43   21   22 2
  44   21   23 2
  45   21   24 1
  46   24   25 ar
  47   24   29 ar
  48   25   26 ar
  49   25   53 1
  50   26   27 ar
  51   26   54 1
  52   27   28 ar
  53   27   30 1
  54   28   29 ar
  55   28   55 1
  56   29   56 1
  57   30   31 1
  58   30   32 1
  59   30   33 1
  60   34   57 1
  61   34   58 1
  62   34   59 1
  63   35   60 1
  64   35   61 1
  65   35   62 1
  66   63   64 1

#	End of record

