#	Name: ASD02038984
#	Creating user name:	WinNT
#	Creation time:	15. 06. 2019 20:17

#	Modifying user name:	WinNT
#	Modification time:	15. 06. 2019 20:17

#	Program:	/corina/corina34_cracker 3.40 0067  02.08.2006

@<TRIPOS>MOLECULE
ASD02038984
  41   44    0    0    0
SMALL
NO_CHARGES


@<TRIPOS>ATOM
   1 N1             0.0234     1.2846    -0.3607 N.2     
   2 N2             0.0398    -0.0019    -0.3619 N.2     
   3 C3             1.2243     1.7332    -0.0875 C.2     
   4 O4             2.0203     0.6621     0.0883 O.3     
   5 C5             1.2410    -0.4221    -0.0920 C.2     
   6 N6             1.6034     3.0607     0.0028 N.pl3   
   7 C7             0.6404     4.0705    -0.0881 C.ar    
   8 C8             1.6809    -1.8604     0.0024 C.3     
   9 O9             2.1174    -2.3102    -1.2818 O.3     
  10 C10            2.5502    -3.5961    -1.3711 C.ar    
  11 C11            2.9880    -4.0975    -2.5886 C.ar    
  12 C12            2.5591    -4.4044    -0.2439 C.ar    
  13 C13            2.9986    -5.7107    -0.3335 C.ar    
  14 C14            3.4313    -6.2146    -1.5524 C.ar    
  15 C15            3.4271    -5.4029    -2.6794 C.ar    
  16 N16            3.8772    -7.5386    -1.6474 N.am    
  17 C17            4.6301    -7.9311    -2.6913 C.2     
  18 C18            5.0238    -6.9547    -3.7667 C.3     
  19 C19            3.8967    -5.9530    -4.0011 C.3     
  20 O20            4.9959    -9.0851    -2.7663 O.2     
  21 C21           -0.6619     3.8293     0.3296 C.ar    
  22 C22            0.9861     5.3185    -0.5910 C.ar    
  23 C23            0.0337     6.3145    -0.6795 C.ar    
  24 C24           -1.2648     6.0708    -0.2678 C.ar    
  25 C25           -1.6116     4.8296     0.2389 C.ar    
  26 Cl26          -2.4594     7.3254    -0.3805 Cl      
  27 Cl27          -3.2415     4.5276     0.7546 Cl      
  28 H28            2.5371     3.2910     0.1292 H       
  29 H29            2.5017    -1.9433     0.7148 H       
  30 H30            0.8453    -2.4746     0.3379 H       
  31 H31            2.9848    -3.4665    -3.4651 H       
  32 H32            2.2226    -4.0120     0.7043 H       
  33 H33            3.0060    -6.3397     0.5444 H       
  34 H34            3.6421    -8.1769    -0.9559 H       
  35 H35            5.9215    -6.4189    -3.4582 H       
  36 H36            5.2266    -7.4962    -4.6907 H       
  37 H37            3.0658    -6.4515    -4.5004 H       
  38 H38            4.2597    -5.1377    -4.6269 H       
  39 H39           -0.9324     2.8611     0.7244 H       
  40 H40            1.9994     5.5098    -0.9123 H       
  41 H41            0.3026     7.2848    -1.0701 H       
@<TRIPOS>BOND
   1    1    2 1
   2    1    3 2
   3    2    5 2
   4    3    4 1
   5    3    6 1
   6    4    5 1
   7    5    8 1
   8    6    7 1
   9    6   28 1
  10    7   21 ar
  11    7   22 ar
  12    8    9 1
  13    8   29 1
  14    8   30 1
  15    9   10 1
  16   10   11 ar
  17   10   12 ar
  18   11   15 ar
  19   11   31 1
  20   12   13 ar
  21   12   32 1
  22   13   14 ar
  23   13   33 1
  24   14   15 ar
  25   14   16 1
  26   15   19 1
  27   16   17 am
  28   16   34 1
  29   17   18 1
  30   17   20 2
  31   18   19 1
  32   18   35 1
  33   18   36 1
  34   19   37 1
  35   19   38 1
  36   21   25 ar
  37   21   39 1
  38   22   23 ar
  39   22   40 1
  40   23   24 ar
  41   23   41 1
  42   24   25 ar
  43   24   26 1
  44   25   27 1

#	End of record

