#	Name: ASD01883815
#	Creating user name:	WinNT
#	Creation time:	15. 06. 2019 19:47

#	Modifying user name:	WinNT
#	Modification time:	15. 06. 2019 19:47

#	Program:	/corina/corina34_cracker 3.40 0067  02.08.2006

@<TRIPOS>MOLECULE
ASD01883815
  51   53    0    0    0
SMALL
NO_CHARGES


@<TRIPOS>ATOM
   1 N1             0.0364     1.3532     0.5852 N.ar    
   2 C2             0.0328     0.0359     0.5097 C.ar    
   3 C3             1.2122    -0.6698     0.3921 C.ar    
   4 C4             2.4210     0.0312     0.3535 C.ar    
   5 C5             2.3785     1.4256     0.4365 C.ar    
   6 C6             1.1546     2.0523     0.5524 C.ar    
   7 C7             3.7140    -0.6857     0.2283 C.2     
   8 C8             3.8751    -2.0711     0.0389 C.2     
   9 C9             5.2083    -2.3289    -0.0264 C.2     
  10 N10            5.8651    -1.1476     0.1168 N.pl3   
  11 N11            4.9091    -0.1356     0.2695 N.2     
  12 C12            1.0947     3.5554     0.6427 C.3     
  13 C13            7.3186    -0.9645     0.1085 C.3     
  14 C14            7.8078    -0.8321    -1.3352 C.3     
  15 C15            7.2353     0.4455    -1.9525 C.3     
  16 N16            5.7955    -3.5787    -0.2070 N.pl3   
  17 C17            6.2122    -4.3214     0.9004 C.ar    
  18 C18            6.7047    -5.6091     0.7295 C.ar    
  19 C19            7.1166    -6.3416     1.8258 C.ar    
  20 C20            7.0393    -5.7954     3.0933 C.ar    
  21 C21            6.5488    -4.5116     3.2685 C.ar    
  22 C22            6.1402    -3.7715     2.1741 C.ar    
  23 C23            7.4888    -6.5982     4.2868 C.3     
  24 F24            7.9397    -7.8526     3.8621 F       
  25 F25            8.5283    -5.9246     4.9371 F       
  26 F26            6.4157    -6.7626     5.1692 F       
  27 F27            6.4740    -3.9808     4.5086 F       
  28 C28            5.9761    -4.1147    -1.5585 C.3     
  29 C29            9.3362    -0.7659    -1.3517 C.3     
  30 H30           -0.9061    -0.4970     0.5408 H       
  31 H31            1.2018    -1.7480     0.3312 H       
  32 H32            3.2901     2.0041     0.4105 H       
  33 H33            3.0814    -2.7992    -0.0398 H       
  34 H34            1.1470     3.8589     1.6883 H       
  35 H35            1.9342     3.9860     0.0969 H       
  36 H36            0.1594     3.9084     0.2083 H       
  37 H37            7.5742    -0.0615     0.6630 H       
  38 H38            7.7960    -1.8255     0.5763 H       
  39 H39            7.4752    -1.6950    -1.9121 H       
  40 H40            6.1464     0.3984    -1.9407 H       
  41 H41            7.5679     1.3084    -1.3756 H       
  42 H42            7.5838     0.5398    -2.9809 H       
  43 H43            6.7651    -6.0375    -0.2601 H       
  44 H44            7.4995    -7.3426     1.6924 H       
  45 H45            5.7578    -2.7707     2.3102 H       
  46 H46            6.9827    -3.8858    -1.9085 H       
  47 H47            5.8338    -5.1953    -1.5428 H       
  48 H48            5.2463    -3.6618    -2.2295 H       
  49 H49            9.7441    -1.6761    -0.9119 H       
  50 H50            9.6847    -0.6716    -2.3802 H       
  51 H51            9.6689     0.0970    -0.7748 H       
@<TRIPOS>BOND
   1    1    2 ar
   2    1    6 ar
   3    2    3 ar
   4    2   30 1
   5    3    4 ar
   6    3   31 1
   7    4    5 ar
   8    4    7 1
   9    5    6 ar
  10    5   32 1
  11    6   12 1
  12    7    8 1
  13    7   11 2
  14    8    9 2
  15    8   33 1
  16    9   10 1
  17    9   16 1
  18   10   11 1
  19   10   13 1
  20   12   34 1
  21   12   35 1
  22   12   36 1
  23   13   14 1
  24   13   37 1
  25   13   38 1
  26   14   15 1
  27   14   29 1
  28   14   39 1
  29   15   40 1
  30   15   41 1
  31   15   42 1
  32   16   17 1
  33   16   28 1
  34   17   18 ar
  35   17   22 ar
  36   18   19 ar
  37   18   43 1
  38   19   20 ar
  39   19   44 1
  40   20   21 ar
  41   20   23 1
  42   21   22 ar
  43   21   27 1
  44   22   45 1
  45   23   24 1
  46   23   25 1
  47   23   26 1
  48   28   46 1
  49   28   47 1
  50   28   48 1
  51   29   49 1
  52   29   50 1
  53   29   51 1

#	End of record

