#	Name: ASD03240172
#	Creating user name:	WinNT
#	Creation time:	15. 06. 2019 20:34

#	Modifying user name:	WinNT
#	Modification time:	15. 06. 2019 20:34

#	Program:	/corina/corina34_cracker 3.40 0067  02.08.2006

@<TRIPOS>MOLECULE
ASD03240172
  84   91    0    0    0
SMALL
NO_CHARGES


@<TRIPOS>ATOM
   1 C1             0.0554     1.4975     0.1647 C.ar    
   2 C2            -0.0625     0.1023    -0.0591 C.ar    
   3 N3             1.2608     2.0696     0.2079 N.ar    
   4 C4             2.3440     1.3320     0.0415 C.ar    
   5 C5             2.2299    -0.0614    -0.1821 C.ar    
   6 N6             1.0410    -0.6356    -0.2269 N.ar    
   7 C7             3.4504    -0.8797    -0.3681 C.ar    
   8 C8             3.6826     1.9650     0.0887 C.ar    
   9 C9             3.9168     3.1590    -0.5928 C.ar    
  10 C10            5.1657     3.7438    -0.5452 C.ar    
  11 C11            6.1846     3.1478     0.1763 C.ar    
  12 C12            5.9584     1.9633     0.8544 C.ar    
  13 C13            4.7120     1.3723     0.8193 C.ar    
  14 C14            3.5825    -2.1003     0.2937 C.ar    
  15 C15            4.7217    -2.8584     0.1161 C.ar    
  16 C16            5.7316    -2.4100    -0.7164 C.ar    
  17 C17            5.6066    -1.1999    -1.3752 C.ar    
  18 C18            4.4697    -0.4355    -1.2101 C.ar    
  19 C19            6.9731    -3.2428    -0.9059 C.3     
  20 N20            6.7803    -4.1585    -2.0383 N.3     
  21 C21            8.0415    -4.8159    -2.4041 C.3     
  22 C22            7.8357    -5.6472    -3.6725 C.3     
  23 C23            6.7473    -6.6941    -3.4198 C.3     
  24 C24            5.4583    -5.9861    -2.9936 C.3     
  25 C25            5.7329    -5.1451    -1.7449 C.3     
  26 C26            6.4980    -7.4765    -4.6834 C.2     
  27 N27            7.0408    -8.6226    -5.0022 N.2     
  28 N28            6.6083    -9.0099    -6.1494 N.2     
  29 C29            5.7616    -8.1226    -6.6225 C.2     
  30 N30            5.6679    -7.1236    -5.6911 N.pl3   
  31 C31            5.0426    -8.1929    -7.9133 C.ar    
  32 N32            5.2386    -9.2374    -8.7083 N.ar    
  33 C33            4.6117    -9.3304    -9.8680 C.ar    
  34 C34            3.7411    -8.3202   -10.2499 C.ar    
  35 C35            3.5592    -7.2425    -9.3954 C.ar    
  36 N36            4.2125    -7.2126    -8.2470 N.ar    
  37 N37           -1.2725    -0.4656    -0.1005 N.ar    
  38 C38           -2.3697     0.2453     0.0630 C.ar    
  39 C39           -2.3199     1.6297     0.2874 C.ar    
  40 C40           -1.1161     2.2640     0.3454 C.ar    
  41 N41           -3.6007    -0.3882     0.0118 N.3     
  42 C42           -3.4419    -1.8288    -0.2312 C.3     
  43 C43           -4.8156    -2.5030    -0.2015 C.3     
  44 N44           -5.6803    -1.8921    -1.2207 N.3     
  45 C45           -5.8391    -0.4515    -0.9777 C.3     
  46 C46           -4.4654     0.2227    -1.0074 C.3     
  47 C47           -6.9856    -2.5639    -1.2750 C.3     
  48 H48            3.1224     3.6248    -1.1569 H       
  49 H49            5.3483     4.6684    -1.0725 H       
  50 H50            7.1606     3.6088     0.2101 H       
  51 H51            6.7578     1.5025     1.4157 H       
  52 H52            4.5364     0.4478     1.3494 H       
  53 H53            2.7950    -2.4513     0.9441 H       
  54 H54            4.8253    -3.8036     0.6283 H       
  55 H55            6.3985    -0.8549    -2.0235 H       
  56 H56            4.3733     0.5090    -1.7249 H       
  57 H57            7.8218    -2.5892    -1.1076 H       
  58 H58            7.1655    -3.8194    -0.0011 H       
  59 H59            8.8058    -4.0602    -2.5852 H       
  60 H60            8.3607    -5.4675    -1.5907 H       
  61 H61            7.5298    -4.9942    -4.4899 H       
  62 H62            8.7679    -6.1474    -3.9349 H       
  63 H63            7.0698    -7.3711    -2.6287 H       
  64 H64            5.1150    -5.3385    -3.8003 H       
  65 H65            4.6919    -6.7285    -2.7709 H       
  66 H66            6.0629    -5.7951    -0.9345 H       
  67 H67            4.8205    -4.6284    -1.4471 H       
  68 H68            5.1223    -6.3234    -5.7454 H       
  69 H69            4.7755   -10.1827   -10.5108 H       
  70 H70            3.2164    -8.3713   -11.1925 H       
  71 H71            2.8883    -6.4397    -9.6635 H       
  72 H72           -3.2338     2.1902     0.4176 H       
  73 H73           -1.0595     3.3287     0.5173 H       
  74 H74           -2.9814    -1.9845    -1.2068 H       
  75 H75           -2.8081    -2.2606     0.5435 H       
  76 H76           -4.7032    -3.5669    -0.4102 H       
  77 H77           -5.2644    -2.3706     0.7830 H       
  78 H78           -6.4729    -0.0197    -1.7523 H       
  79 H79           -6.2996    -0.2958    -0.0021 H       
  80 H80           -4.5778     1.2866    -0.7987 H       
  81 H81           -4.0166     0.0903    -1.9918 H       
  82 H82           -7.4768    -2.4823    -0.3054 H       
  83 H83           -7.6056    -2.0920    -2.0372 H       
  84 H84           -6.8428    -3.6157    -1.5226 H       
@<TRIPOS>BOND
   1    1    2 ar
   2    1    3 ar
   3    1   40 ar
   4    2   37 ar
   5    2    6 ar
   6    3    4 ar
   7    4    5 ar
   8    4    8 1
   9    5    6 ar
  10    5    7 1
  11    7   14 ar
  12    7   18 ar
  13    8    9 ar
  14    8   13 ar
  15    9   10 ar
  16    9   48 1
  17   10   11 ar
  18   10   49 1
  19   11   12 ar
  20   11   50 1
  21   12   13 ar
  22   12   51 1
  23   13   52 1
  24   14   15 ar
  25   14   53 1
  26   15   16 ar
  27   15   54 1
  28   16   17 ar
  29   16   19 1
  30   17   18 ar
  31   17   55 1
  32   18   56 1
  33   19   20 1
  34   19   57 1
  35   19   58 1
  36   20   21 1
  37   20   25 1
  38   21   22 1
  39   21   59 1
  40   21   60 1
  41   22   23 1
  42   22   61 1
  43   22   62 1
  44   23   24 1
  45   23   26 1
  46   23   63 1
  47   24   25 1
  48   24   64 1
  49   24   65 1
  50   25   66 1
  51   25   67 1
  52   26   27 2
  53   26   30 1
  54   27   28 1
  55   28   29 2
  56   29   30 1
  57   29   31 1
  58   30   68 1
  59   31   32 ar
  60   31   36 ar
  61   32   33 ar
  62   33   34 ar
  63   33   69 1
  64   34   35 ar
  65   34   70 1
  66   35   36 ar
  67   35   71 1
  68   37   38 ar
  69   38   39 ar
  70   38   41 1
  71   39   40 ar
  72   39   72 1
  73   40   73 1
  74   41   42 1
  75   41   46 1
  76   42   43 1
  77   42   74 1
  78   42   75 1
  79   43   44 1
  80   43   76 1
  81   43   77 1
  82   44   45 1
  83   44   47 1
  84   45   46 1
  85   45   78 1
  86   45   79 1
  87   46   80 1
  88   46   81 1
  89   47   82 1
  90   47   83 1
  91   47   84 1

#	End of record

