#	Name: ASD03240804
#	Creating user name:	WinNT
#	Creation time:	15. 06. 2019 20:35

#	Modifying user name:	WinNT
#	Modification time:	15. 06. 2019 20:35

#	Program:	/corina/corina34_cracker 3.40 0067  02.08.2006

@<TRIPOS>MOLECULE
ASD03240804
  65   71    0    0    0
SMALL
NO_CHARGES


@<TRIPOS>ATOM
   1 C1             0.2536     0.9507    -1.5951 C.2     
   2 N2             0.3042    -0.3908    -1.5150 N.2     
   3 C3             1.4260    -1.0319    -1.3110 C.2     
   4 C4             2.6637    -0.2687    -1.1654 C.ar    
   5 C5             2.6040     1.1388    -1.2505 C.ar    
   6 N6             1.3732     1.7276    -1.4681 N.pl3   
   7 C7             3.8937    -0.8970    -0.9453 C.ar    
   8 C8             5.0222    -0.0933    -0.8179 C.ar    
   9 C9             4.8835     1.3048    -0.9145 C.ar    
  10 N10            3.7012     1.8643    -1.1245 N.ar    
  11 N11            0.9837     3.0661    -1.5993 N.2     
  12 C12           -0.3119     3.1118    -1.7973 C.2     
  13 C13           -0.8129     1.8161    -1.7971 C.2     
  14 C14            6.3540    -0.7010    -0.5830 C.ar    
  15 C15            6.5239    -1.6439     0.4295 C.ar    
  16 C16            7.7658    -2.2067     0.6433 C.ar    
  17 C17            8.8408    -1.8364    -0.1447 C.ar    
  18 C18            8.6781    -0.9009    -1.1506 C.ar    
  19 C19            7.4396    -0.3360    -1.3776 C.ar    
  20 C20           -2.2549     1.4208    -1.9857 C.3     
  21 C21           -1.1256     4.3660    -1.9872 C.3     
  22 C22            6.0813     2.1651    -0.7797 C.ar    
  23 C23            6.1891     3.3376    -1.5276 C.ar    
  24 C24            7.3076     4.1350    -1.3976 C.ar    
  25 C25            8.3209     3.7737    -0.5277 C.ar    
  26 C26            8.2199     2.6120     0.2168 C.ar    
  27 C27            7.1038     1.8092     0.0999 C.ar    
  28 C28            9.5400     4.6490    -0.3910 C.3     
  29 C29           10.1863     4.5916     1.0032 C.3     
  30 C30           11.5470     4.6098     0.2869 C.3     
  31 C31           10.8271     4.0008    -0.9279 C.3     
  32 O32           12.5150     3.7383     0.8747 O.3     
  33 C33           12.0885     6.0185     0.0356 C.3     
  34 C34           12.4436     6.8673     1.2581 C.3     
  35 C35           13.5548     6.2840     0.3828 C.3     
  36 N36            9.3206     6.0160    -0.8820 N.3     
  37 H37            1.4372    -2.1102    -1.2507 H       
  38 H38            3.9652    -1.9724    -0.8760 H       
  39 H39            5.6855    -1.9333     1.0457 H       
  40 H40            7.8987    -2.9373     1.4274 H       
  41 H41            9.8109    -2.2791     0.0265 H       
  42 H42            9.5210    -0.6153    -1.7624 H       
  43 H43            7.3127     0.3910    -2.1661 H       
  44 H44           -2.7504     1.3802    -1.0157 H       
  45 H45           -2.7534     2.1556    -2.6179 H       
  46 H46           -2.3038     0.4406    -2.4600 H       
  47 H47           -1.1689     4.6139    -3.0477 H       
  48 H48           -2.1355     4.2044    -1.6102 H       
  49 H49           -0.6609     5.1868    -1.4409 H       
  50 H50            5.3988     3.6205    -2.2072 H       
  51 H51            7.3924     5.0429    -1.9764 H       
  52 H52            9.0142     2.3353     0.8941 H       
  53 H53            7.0240     0.9049     0.6849 H       
  54 H54            9.9994     5.4789     1.6080 H       
  55 H55            9.9873     3.6634     1.5389 H       
  56 H56           10.8032     2.9111    -0.9202 H       
  57 H57           11.1574     4.4112    -1.8821 H       
  58 H58           12.1968     2.8366     1.0182 H       
  59 H59           11.6752     6.5333    -0.8317 H       
  60 H60           12.2642     7.9406     1.1948 H       
  61 H61           12.2914     6.4221     2.2413 H       
  62 H62           14.1336     5.4551     0.7902 H       
  63 H63           14.1064     6.9735    -0.2562 H       
  64 H64            8.8960     6.0076    -1.7973 H       
  65 H65            8.7646     6.5493    -0.2304 H       
@<TRIPOS>BOND
   1    1    2 1
   2    1    6 1
   3    1   13 2
   4    2    3 2
   5    3    4 1
   6    3   37 1
   7    4    5 ar
   8    4    7 ar
   9    5    6 1
  10    5   10 ar
  11    6   11 1
  12    7    8 ar
  13    7   38 1
  14    8    9 ar
  15    8   14 1
  16    9   10 ar
  17    9   22 1
  18   11   12 2
  19   12   13 1
  20   12   21 1
  21   13   20 1
  22   14   15 ar
  23   14   19 ar
  24   15   16 ar
  25   15   39 1
  26   16   17 ar
  27   16   40 1
  28   17   18 ar
  29   17   41 1
  30   18   19 ar
  31   18   42 1
  32   19   43 1
  33   20   44 1
  34   20   45 1
  35   20   46 1
  36   21   47 1
  37   21   48 1
  38   21   49 1
  39   22   23 ar
  40   22   27 ar
  41   23   24 ar
  42   23   50 1
  43   24   25 ar
  44   24   51 1
  45   25   26 ar
  46   25   28 1
  47   26   27 ar
  48   26   52 1
  49   27   53 1
  50   28   29 1
  51   28   31 1
  52   28   36 1
  53   29   30 1
  54   29   54 1
  55   29   55 1
  56   30   31 1
  57   30   32 1
  58   30   33 1
  59   31   56 1
  60   31   57 1
  61   32   58 1
  62   33   34 1
  63   33   35 1
  64   33   59 1
  65   34   35 1
  66   34   60 1
  67   34   61 1
  68   35   62 1
  69   35   63 1
  70   36   64 1
  71   36   65 1

#	End of record

