#	Name: ASD01120114
#	Creating user name:	WinNT
#	Creation time:	15. 06. 2019 18:59

#	Modifying user name:	WinNT
#	Modification time:	15. 06. 2019 18:59

#	Program:	/corina/corina34_cracker 3.40 0067  02.08.2006

@<TRIPOS>MOLECULE
ASD01120114
  31   33    0    0    0
SMALL
NO_CHARGES


@<TRIPOS>ATOM
   1 C1            -0.0117     1.3834     0.1013 C.ar    
   2 C2             0.0679     0.1557    -0.5300 C.ar    
   3 C3             1.2752    -0.5217    -0.5781 C.ar    
   4 C4             2.4077     0.0373     0.0103 C.ar    
   5 C5             2.3201     1.2697     0.6416 C.ar    
   6 C6             1.1116     1.9388     0.6856 C.ar    
   7 N7             3.6305    -0.6430    -0.0348 N.pl3   
   8 C8             4.8150     0.0676    -0.1470 C.2     
   9 N9             6.0051    -0.4443    -0.0789 N.2     
  10 C10            7.0300     0.3963    -0.2097 C.2     
  11 C11            6.6959     1.6847    -0.3980 C.2     
  12 S12            4.9381     1.8041    -0.4115 S.3     
  13 C13            8.4408    -0.0573    -0.1512 C.ar    
  14 C14            8.7346    -1.4055     0.0461 C.ar    
  15 C15           10.0493    -1.8218     0.0997 C.ar    
  16 C16           11.0745    -0.9040    -0.0415 C.ar    
  17 C17           10.7889     0.4353    -0.2376 C.ar    
  18 C18            9.4780     0.8622    -0.2991 C.ar    
  19 O19            1.3548    -1.7296    -1.1979 O.3     
  20 H20           -0.9530     1.9119     0.1342 H       
  21 H21           -0.8115    -0.2753    -0.9853 H       
  22 H22            3.1959     1.7057     1.0991 H       
  23 H23            1.0446     2.8981     1.1773 H       
  24 H24            3.6486    -1.6117     0.0124 H       
  25 H25            7.3866     2.5054    -0.5231 H       
  26 H26            7.9350    -2.1229     0.1571 H       
  27 H27           10.2781    -2.8662     0.2525 H       
  28 H28           12.1019    -1.2342     0.0018 H       
  29 H29           11.5934     1.1476    -0.3468 H       
  30 H30            9.2562     1.9080    -0.4522 H       
  31 H31            1.5738    -1.6755    -2.1382 H       
@<TRIPOS>BOND
   1    1    2 ar
   2    1    6 ar
   3    1   20 1
   4    2    3 ar
   5    2   21 1
   6    3    4 ar
   7    3   19 1
   8    4    5 ar
   9    4    7 1
  10    5    6 ar
  11    5   22 1
  12    6   23 1
  13    7    8 1
  14    7   24 1
  15    8    9 2
  16    8   12 1
  17    9   10 1
  18   10   11 2
  19   10   13 1
  20   11   12 1
  21   11   25 1
  22   13   14 ar
  23   13   18 ar
  24   14   15 ar
  25   14   26 1
  26   15   16 ar
  27   15   27 1
  28   16   17 ar
  29   16   28 1
  30   17   18 ar
  31   17   29 1
  32   18   30 1
  33   19   31 1

#	End of record

