#	Name: ASD05143045
#	Creating user name:	WinNT
#	Creation time:	15. 06. 2019 20:57

#	Modifying user name:	WinNT
#	Modification time:	15. 06. 2019 20:57

#	Program:	/corina/corina34_cracker 3.40 0067  02.08.2006

@<TRIPOS>MOLECULE
ASD05143045
 145  149    0    0    0
SMALL
NO_CHARGES


@<TRIPOS>ATOM
   1 C1             1.9647     2.9176     7.9341 C.2     
   2 C2             2.5754     2.4069     9.2136 C.3     
   3 N3             2.6048     3.8569     7.2098 N.am    
   4 O4             0.8997     2.4798     7.5535 O.2     
   5 C5             2.0111     4.3534     5.9659 C.3     
   6 C6             1.8310     3.1911     4.9873 C.3     
   7 C7             0.6698     4.9733     6.2619 C.2     
   8 C8             3.2019     2.6309     4.6030 C.3     
   9 C9             3.0218     1.4687     3.6244 C.3     
  10 N10            4.3345     0.9322     3.2564 N.pl3   
  11 C11            4.4245    -0.1246     2.3817 C.2     
  12 N12            5.6564    -0.6281     2.0364 N.pl3   
  13 N13            3.3421    -0.6494     1.8799 N.2     
  14 O14            0.1201     4.7527     7.3202 O.2     
  15 N15            0.0811     5.7728     5.3505 N.am    
  16 C16           -1.2679     6.2831     5.5887 C.3     
  17 C17           -1.1606     7.6177     6.3249 C.3     
  18 C18           -2.0588     7.5920     7.5645 C.3     
  19 C19           -1.8256     8.8352     8.3795 C.2     
  20 O20           -0.6973     9.1971     8.6427 O.2     
  21 N21           -2.9065     9.5515     8.8175 N.am    
  22 C22           -2.5776    10.7788     9.5753 C.3     
  23 C23           -3.7904    11.7107     9.5587 C.3     
  24 C24           -3.6344    12.7319     8.4326 C.3     
  25 C25           -4.9462    13.5048     8.2617 C.3     
  26 N26           -4.9556    14.1293     6.9255 N.am    
  27 C27           -5.0409    14.5765     9.3175 C.2     
  28 N28           -5.4313    14.2584    10.5676 N.am    
  29 O29           -4.7658    15.7252     9.0419 O.2     
  30 C30           -5.9429    13.7695     6.0637 C.2     
  31 O31           -6.7091    12.8682     6.3317 O.2     
  32 C32           -6.0821    14.5353     4.7702 C.3     
  33 N33           -6.6496    13.6512     3.7280 N.am    
  34 C34           -7.0155    15.7291     4.9841 C.3     
  35 C35           -5.7550    12.9005     3.0206 C.2     
  36 O36           -4.5926    12.8437     3.3759 O.2     
  37 C37           -6.2039    12.1750     1.7848 C.3     
  38 N38           -5.1645    11.2219     1.3460 N.am    
  39 C39           -7.5129    11.4273     2.0442 C.3     
  40 C40           -4.6971    10.3508     2.2682 C.2     
  41 O41           -5.1655    10.3097     3.3876 O.2     
  42 C42           -3.5555     9.4016     1.9564 C.3     
  43 C43           -7.0591    16.5637     3.7301 C.2     
  44 C44           -7.9229    16.3449     2.5674 C.ar    
  45 C45           -7.6108    17.3676     1.6534 C.ar    
  46 N46           -6.6296    18.1424     2.2302 N.pl3   
  47 C47           -6.3179    17.6520     3.4690 C.2     
  48 C48           -8.8970    15.3973     2.2467 C.ar    
  49 C49           -9.5430    15.4687     1.0450 C.ar    
  50 C50           -9.2384    16.4759     0.1393 C.ar    
  51 C51           -8.2814    17.4214     0.4356 C.ar    
  52 N52           -4.1325     8.0419     2.0390 N.am    
  53 C53           -2.4658     9.6344     3.0048 C.3     
  54 C54           -1.9803    11.0584     2.9171 C.ar    
  55 C55           -1.9370    11.8458     4.0536 C.ar    
  56 C56           -1.4907    13.1531     3.9723 C.ar    
  57 C57           -1.0884    13.6712     2.7560 C.ar    
  58 C58           -1.1319    12.8837     1.6204 C.ar    
  59 C59           -1.5727    11.5762     1.7019 C.ar    
  60 C60           -2.0179     6.5025     4.3057 C.2     
  61 O61           -3.1334     7.0047     4.3803 O.2     
  62 C62           -8.0103    10.8020     0.7394 C.3     
  63 C63           -9.3196    10.0542     0.9989 C.3     
  64 N64           -9.7959     9.4555    -0.2504 N.pl3   
  65 C65          -10.9633     8.7293    -0.2635 C.2     
  66 N66          -11.4103     8.1674    -1.4360 N.pl3   
  67 N67          -11.6462     8.5735     0.8357 N.2     
  68 Cl68          -2.4431    11.1944     5.5811 Cl      
  69 N69           -1.5599     6.1531     3.0937 N.am    
  70 C70           -1.9388     6.7863     1.8245 C.3     
  71 C71           -0.6504     5.0477     2.8011 C.3     
  72 C72           -0.9378     4.6018     1.3586 C.3     
  73 C73           -1.4642     5.8740     0.6789 C.3     
  74 C74           -3.4277     6.9285     1.7624 C.2     
  75 O75           -4.0687     5.9360     1.4238 O.2     
  76 O76            0.2632     4.1552     0.7283 O.3     
  77 H77            2.2366     3.0207    10.0482 H       
  78 H78            2.2694     1.3733     9.3750 H       
  79 H79            3.6620     2.4573     9.1431 H       
  80 H80            3.4586     4.2041     7.5121 H       
  81 H81            2.6679     5.1024     5.5235 H       
  82 H82            1.2376     2.4078     5.4588 H       
  83 H83            1.3195     3.5456     4.0924 H       
  84 H84            3.7954     3.4142     4.1315 H       
  85 H85            3.7135     2.2765     5.4979 H       
  86 H86            2.4284     0.6853     4.0959 H       
  87 H87            2.5103     1.8231     2.7295 H       
  88 H88            5.1400     1.3227     3.6298 H       
  89 H89            6.4620    -0.2376     2.4098 H       
  90 H90            5.7200    -1.3737     1.4192 H       
  91 H91            3.4056    -1.3950     1.2628 H       
  92 H92            0.5526     6.0097     4.5366 H       
  93 H93           -1.8181     5.5758     6.2165 H       
  94 H94           -0.1261     7.7773     6.6283 H       
  95 H95           -1.4724     8.4257     5.6623 H       
  96 H96           -3.1033     7.5508     7.2557 H       
  97 H97           -1.8222     6.7156     8.1666 H       
  98 H98           -3.8200     9.2734     8.6469 H       
  99 H99           -2.3339    10.5142    10.6052 H       
 100 H100          -1.7250    11.2767     9.1140 H       
 101 H101          -4.6971    11.1283     9.4001 H       
 102 H102          -3.8547    12.2293    10.5166 H       
 103 H103          -2.8334    13.4284     8.6805 H       
 104 H104          -3.3916    12.2172     7.5033 H       
 105 H105          -5.7882    12.8214     8.3612 H       
 106 H106          -4.2804    14.7811     6.6681 H       
 107 H107          -5.6513    13.3397    10.7880 H       
 108 H108          -5.4922    14.9480    11.2470 H       
 109 H109          -5.1015    14.8949     4.4554 H       
 110 H110          -7.6071    13.6225     3.5612 H       
 111 H111          -8.0179    15.3694     5.2162 H       
 112 H112          -6.6464    16.3353     5.8114 H       
 113 H113          -6.3692    12.9066     0.9871 H       
 114 H114          -4.8330    11.2247     0.4295 H       
 115 H115          -7.3431    10.6427     2.7815 H       
 116 H116          -8.2610    12.1246     2.4213 H       
 117 H117          -3.1733     9.6074     0.9597 H       
 118 H118          -6.2226    18.9220     1.8210 H       
 119 H119          -5.5794    18.0734     4.1349 H       
 120 H120          -9.1387    14.6106     2.9461 H       
 121 H121         -10.2964    14.7356     0.7974 H       
 122 H122          -9.7574    16.5189    -0.8068 H       
 123 H123          -8.0518    18.2011    -0.2754 H       
 124 H124          -5.0803     7.9438     2.3190 H       
 125 H125          -2.8728     9.4500     3.9990 H       
 126 H126          -1.6337     8.9549     2.8210 H       
 127 H127          -1.4570    13.7684     4.8592 H       
 128 H128          -0.7403    14.6916     2.6924 H       
 129 H129          -0.8177    13.2891     0.6700 H       
 130 H130          -1.6061    10.9614     0.8146 H       
 131 H131          -8.1800    11.5867     0.0021 H       
 132 H132          -7.2622    10.1047     0.3623 H       
 133 H133          -9.1499     9.2696     1.7362 H       
 134 H134         -10.0677    10.7515     1.3760 H       
 135 H135          -9.2877     9.5714    -1.0685 H       
 136 H136         -10.9020     8.2834    -2.2540 H       
 137 H137         -12.2339     7.6551    -1.4452 H       
 138 H138         -12.4698     8.0612     0.8265 H       
 139 H139          -1.4264     7.7397     1.7065 H       
 140 H140           0.3825     5.3806     2.8761 H       
 141 H141          -0.8391     4.2204     3.4808 H       
 142 H142          -1.6902     3.8162     1.3468 H       
 143 H143          -2.2888     5.6388     0.0089 H       
 144 H144          -0.6585     6.3632     0.1267 H       
 145 H145           0.6728     3.3922     1.1585 H       
@<TRIPOS>BOND
   1    1    2 1
   2    1    3 am
   3    1    4 2
   4    2   77 1
   5    2   78 1
   6    2   79 1
   7    3    5 1
   8    3   80 1
   9    5    6 1
  10    5    7 1
  11    5   81 1
  12    6    8 1
  13    6   82 1
  14    6   83 1
  15    7   14 2
  16    7   15 am
  17    8    9 1
  18    8   84 1
  19    8   85 1
  20    9   10 1
  21    9   86 1
  22    9   87 1
  23   10   11 1
  24   10   88 1
  25   11   12 1
  26   11   13 2
  27   12   89 1
  28   12   90 1
  29   13   91 1
  30   15   16 1
  31   15   92 1
  32   16   17 1
  33   16   60 1
  34   16   93 1
  35   17   18 1
  36   17   94 1
  37   17   95 1
  38   18   19 1
  39   18   96 1
  40   18   97 1
  41   19   20 2
  42   19   21 am
  43   21   22 1
  44   21   98 1
  45   22   23 1
  46   22   99 1
  47   22  100 1
  48   23   24 1
  49   23  101 1
  50   23  102 1
  51   24   25 1
  52   24  103 1
  53   24  104 1
  54   25   26 1
  55   25   27 1
  56   25  105 1
  57   26   30 am
  58   26  106 1
  59   27   28 am
  60   27   29 2
  61   28  107 1
  62   28  108 1
  63   30   31 2
  64   30   32 1
  65   32   33 1
  66   32   34 1
  67   32  109 1
  68   33   35 am
  69   33  110 1
  70   34   43 1
  71   34  111 1
  72   34  112 1
  73   35   36 2
  74   35   37 1
  75   37   38 1
  76   37   39 1
  77   37  113 1
  78   38   40 am
  79   38  114 1
  80   39   62 1
  81   39  115 1
  82   39  116 1
  83   40   41 2
  84   40   42 1
  85   42   52 1
  86   42   53 1
  87   42  117 1
  88   43   44 1
  89   43   47 2
  90   44   45 ar
  91   44   48 ar
  92   45   46 1
  93   45   51 ar
  94   46   47 1
  95   46  118 1
  96   47  119 1
  97   48   49 ar
  98   48  120 1
  99   49   50 ar
 100   49  121 1
 101   50   51 ar
 102   50  122 1
 103   51  123 1
 104   52   74 am
 105   52  124 1
 106   53   54 1
 107   53  125 1
 108   53  126 1
 109   54   55 ar
 110   54   59 ar
 111   55   56 ar
 112   55   68 1
 113   56   57 ar
 114   56  127 1
 115   57   58 ar
 116   57  128 1
 117   58   59 ar
 118   58  129 1
 119   59  130 1
 120   60   61 2
 121   60   69 am
 122   62   63 1
 123   62  131 1
 124   62  132 1
 125   63   64 1
 126   63  133 1
 127   63  134 1
 128   64   65 1
 129   64  135 1
 130   65   66 1
 131   65   67 2
 132   66  136 1
 133   66  137 1
 134   67  138 1
 135   69   70 1
 136   69   71 1
 137   70   73 1
 138   70   74 1
 139   70  139 1
 140   71   72 1
 141   71  140 1
 142   71  141 1
 143   72   73 1
 144   72   76 1
 145   72  142 1
 146   73  143 1
 147   73  144 1
 148   74   75 2
 149   76  145 1

#	End of record

