#	Name: ASD08710031
#	Creating user name:	WinNT
#	Creation time:	15. 06. 2019 21:19

#	Modifying user name:	WinNT
#	Modification time:	15. 06. 2019 21:19

#	Program:	/corina/corina34_cracker 3.40 0067  02.08.2006

@<TRIPOS>MOLECULE
ASD08710031
  54   56    0    0    0
SMALL
NO_CHARGES


@<TRIPOS>ATOM
   1 C1            -0.7635    -0.0713    -1.3201 C.ar    
   2 C2            -0.5385    -1.4033    -1.0267 C.ar    
   3 C3             0.3043     0.7942    -1.4667 C.ar    
   4 C4             1.5973     0.3276    -1.3200 C.ar    
   5 C5             1.8223    -1.0042    -1.0262 C.ar    
   6 C6             0.7545    -1.8698    -0.8800 C.ar    
   7 S7             1.0413    -3.5673    -0.5049 S.o2    
   8 O8            -0.1059    -4.2766    -0.9524 O.2     
   9 O9             2.3586    -3.8597    -0.9505 O.2     
  10 N10            1.0638    -3.7078     1.1449 N.am    
  11 C11           -0.1733    -3.9823     1.8892 C.3     
  12 C12            2.3224    -3.5664     1.8906 C.3     
  13 C13            2.5284    -4.8219     2.7469 C.3     
  14 N14            1.2903    -5.0908     3.4917 N.am    
  15 C15            0.0380    -5.2369     2.7456 C.3     
  16 C16            1.3088    -5.2060     4.8344 C.2     
  17 C17            2.8526    -6.0128     1.8426 C.3     
  18 C18            0.0378    -5.3441     5.5837 C.ar    
  19 O19            2.3676    -5.1967     5.4305 O.2     
  20 N20           -1.1044    -4.9737     5.0158 N.ar    
  21 C21           -2.2573    -5.0784     5.6425 C.ar    
  22 C22           -2.3256    -5.5819     6.9281 C.ar    
  23 C23           -1.1528    -5.9839     7.5657 C.ar    
  24 C24            0.0515    -5.8655     6.8725 C.ar    
  25 N25           -1.1836    -6.4951     8.8600 N.pl3   
  26 F26           -0.0639     2.9718    -0.5973 F       
  27 F27            1.1329     2.7477    -2.5303 F       
  28 C28            0.0590     2.2462    -1.7870 C.3     
  29 F29           -1.1197     2.3669    -2.5308 F       
  30 C30           -2.4393    -6.5030     9.6147 C.3     
  31 C31            0.0395    -7.0252     9.4675 C.3     
  32 H32           -1.7735     0.2922    -1.4392 H       
  33 H33           -1.3728    -2.0794    -0.9118 H       
  34 H34            2.4316     1.0037    -1.4353 H       
  35 H35            2.8325    -1.3689    -0.9123 H       
  36 H36           -0.4083    -3.1350     2.5334 H       
  37 H37           -0.9917    -4.1507     1.1892 H       
  38 H38            3.1518    -3.4602     1.1914 H       
  39 H39            2.2692    -2.6888     2.5349 H       
  40 H40            3.3478    -4.6571     3.4466 H       
  41 H41           -0.7931    -5.3424     3.4429 H       
  42 H42            0.0947    -6.1166     2.1044 H       
  43 H43            3.7628    -5.8047     1.2802 H       
  44 H44            2.9985    -6.9037     2.4534 H       
  45 H45            2.0273    -6.1783     1.1500 H       
  46 H46           -3.1635    -4.7658     5.1449 H       
  47 H47           -3.2768    -5.6626     7.4330 H       
  48 H48            0.9810    -6.1667     7.3325 H       
  49 H49           -2.9692    -7.4371     9.4285 H       
  50 H50           -2.2238    -6.4135    10.6794 H       
  51 H51           -3.0590    -5.6642     9.2976 H       
  52 H52            0.8818    -6.8539     8.7973 H       
  53 H53            0.2219    -6.5209    10.4165 H       
  54 H54           -0.0752    -8.0952     9.6409 H       
@<TRIPOS>BOND
   1    1    2 ar
   2    1    3 ar
   3    1   32 1
   4    2    6 ar
   5    2   33 1
   6    3    4 ar
   7    3   28 1
   8    4    5 ar
   9    4   34 1
  10    5    6 ar
  11    5   35 1
  12    6    7 1
  13    7    8 2
  14    7    9 2
  15    7   10 am
  16   10   11 1
  17   10   12 1
  18   11   15 1
  19   11   36 1
  20   11   37 1
  21   12   13 1
  22   12   38 1
  23   12   39 1
  24   13   14 1
  25   13   17 1
  26   13   40 1
  27   14   15 1
  28   14   16 am
  29   15   41 1
  30   15   42 1
  31   16   18 1
  32   16   19 2
  33   17   43 1
  34   17   44 1
  35   17   45 1
  36   18   20 ar
  37   18   24 ar
  38   20   21 ar
  39   21   22 ar
  40   21   46 1
  41   22   23 ar
  42   22   47 1
  43   23   24 ar
  44   23   25 1
  45   24   48 1
  46   25   30 1
  47   25   31 1
  48   26   28 1
  49   27   28 1
  50   28   29 1
  51   30   49 1
  52   30   50 1
  53   30   51 1
  54   31   52 1
  55   31   53 1
  56   31   54 1

#	End of record

