#	Name: ASD01230860
#	Creating user name:	WinNT
#	Creation time:	15. 06. 2019 19:15

#	Modifying user name:	WinNT
#	Modification time:	15. 06. 2019 19:15

#	Program:	/corina/corina34_cracker 3.40 0067  02.08.2006

@<TRIPOS>MOLECULE
ASD01230860
  46   48    0    0    0
SMALL
NO_CHARGES


@<TRIPOS>ATOM
   1 S1            -0.0203     1.6432     0.0111 S.o2    
   2 N2             0.0021    -0.0041     0.0020 N.am    
   3 C3             1.0582    -0.7115     0.0766 C.2     
   4 N4             2.3239    -0.2014     0.2156 N.pl3   
   5 C5             2.5547     1.1284     0.7685 C.3     
   6 C6             1.7187     2.1517    -0.0028 C.3     
   7 C7             0.9691    -2.2282     0.0263 C.3     
   8 C8             2.0432    -2.7791     0.9676 C.3     
   9 C9             3.4382    -2.3754     0.5096 C.3     
  10 C10            3.4443    -1.0396    -0.2239 C.3     
  11 C11           -0.3942    -2.6772     0.4854 C.ar    
  12 C12           -1.2069    -3.4010    -0.3669 C.ar    
  13 C13           -2.4575    -3.8128     0.0543 C.ar    
  14 C14           -2.8952    -3.5012     1.3279 C.ar    
  15 C15           -2.0821    -2.7781     2.1806 C.ar    
  16 C16           -0.8298    -2.3701     1.7609 C.ar    
  17 C17           -4.2589    -3.9493     1.7867 C.3     
  18 C18           -4.1131    -4.8530     3.0126 C.3     
  19 C19           -5.4844    -5.4079     3.4032 C.3     
  20 C20           -5.1015    -2.7257     2.1525 C.3     
  21 O21           -0.6472     1.9881    -1.2166 O.2     
  22 O22           -0.6237     1.9749     1.2541 O.2     
  23 H23            2.2653     1.1405     1.8193 H       
  24 H24            3.6113     1.3809     0.6793 H       
  25 H25            2.0726     2.2083    -1.0322 H       
  26 H26            1.8152     3.1296     0.4690 H       
  27 H27            1.1525    -2.5769    -0.9900 H       
  28 H28            1.8709    -2.3915     1.9717 H       
  29 H29            1.9753    -3.8668     0.9892 H       
  30 H30            4.0887    -2.3026     1.3812 H       
  31 H31            3.8279    -3.1455    -0.1561 H       
  32 H32            3.3602    -1.2183    -1.2958 H       
  33 H33            4.3816    -0.5221    -0.0194 H       
  34 H34           -0.8650    -3.6444    -1.3620 H       
  35 H35           -3.0927    -4.3777    -0.6119 H       
  36 H36           -2.4242    -2.5344     3.1756 H       
  37 H37           -0.1931    -1.8083     2.4283 H       
  38 H38           -4.7489    -4.5012     0.9846 H       
  39 H39           -3.4407    -5.6782     2.7778 H       
  40 H40           -3.7047    -4.2765     3.8426 H       
  41 H41           -6.1568    -4.5828     3.6380 H       
  42 H42           -5.8928    -5.9845     2.5732 H       
  43 H43           -5.3805    -6.0518     4.2765 H       
  44 H44           -5.2053    -2.0818     1.2792 H       
  45 H45           -6.0878    -3.0498     2.4844 H       
  46 H46           -4.6115    -2.1737     2.9546 H       
@<TRIPOS>BOND
   1    1    2 am
   2    1    6 1
   3    1   21 2
   4    1   22 2
   5    2    3 2
   6    3    4 1
   7    3    7 1
   8    4    5 1
   9    4   10 1
  10    5    6 1
  11    5   23 1
  12    5   24 1
  13    6   25 1
  14    6   26 1
  15    7    8 1
  16    7   11 1
  17    7   27 1
  18    8    9 1
  19    8   28 1
  20    8   29 1
  21    9   10 1
  22    9   30 1
  23    9   31 1
  24   10   32 1
  25   10   33 1
  26   11   12 ar
  27   11   16 ar
  28   12   13 ar
  29   12   34 1
  30   13   14 ar
  31   13   35 1
  32   14   15 ar
  33   14   17 1
  34   15   16 ar
  35   15   36 1
  36   16   37 1
  37   17   18 1
  38   17   20 1
  39   17   38 1
  40   18   19 1
  41   18   39 1
  42   18   40 1
  43   19   41 1
  44   19   42 1
  45   19   43 1
  46   20   44 1
  47   20   45 1
  48   20   46 1

#	End of record

