#	Name: ASD01200322
#	Creating user name:	WinNT
#	Creation time:	15. 06. 2019 19:08

#	Modifying user name:	WinNT
#	Modification time:	15. 06. 2019 19:08

#	Program:	/corina/corina34_cracker 3.40 0067  02.08.2006

@<TRIPOS>MOLECULE
ASD01200322
  36   38    0    0    0
SMALL
NO_CHARGES


@<TRIPOS>ATOM
   1 C1            -0.0155     1.2927     0.0091 C.2     
   2 N2             0.0021    -0.0041     0.0020 N.2     
   3 C3             1.1880    -0.5851    -0.0124 C.2     
   4 C4             2.2197     0.2600    -0.0177 C.2     
   5 S5             1.5818     1.9021    -0.0028 S.3     
   6 C6             1.3614    -2.0820    -0.0221 C.3     
   7 N7            -1.1632     2.0718     0.0190 N.pl3   
   8 C8            -1.0618     3.4615     0.0261 C.ar    
   9 N9             0.1316     4.0324     0.0233 N.ar    
  10 C10            0.2723     5.3451     0.0297 C.ar    
  11 C11           -0.8287     6.1770     0.0397 C.ar    
  12 C12           -2.1018     5.6219     0.0430 C.ar    
  13 C13           -2.2203     4.2402     0.0303 C.ar    
  14 O14           -3.4468     3.6526     0.0271 O.3     
  15 C15           -4.5820     4.5206     0.0318 C.3     
  16 C16           -5.8440     3.6971     0.0273 C.ar    
  17 C17           -6.4229     3.3129     1.2224 C.ar    
  18 C18           -7.5806     2.5575     1.2183 C.ar    
  19 C19           -8.1596     2.1866     0.0191 C.ar    
  20 C20           -7.5813     2.5715    -1.1760 C.ar    
  21 C21           -6.4260     3.3306    -1.1718 C.ar    
  22 H22            3.2642    -0.0144    -0.0292 H       
  23 H23            1.3938    -2.4374    -1.0521 H       
  24 H24            2.2919    -2.3433     0.4818 H       
  25 H25            0.5238    -2.5482     0.4969 H       
  26 H26           -2.0363     1.6492     0.0211 H       
  27 H27            1.2634     5.7741     0.0275 H       
  28 H28           -0.7016     7.2494     0.0453 H       
  29 H29           -2.9791     6.2517     0.0507 H       
  30 H30           -4.5585     5.1447     0.9252 H       
  31 H31           -4.5585     5.1543    -0.8548 H       
  32 H32           -5.9705     3.6027     2.1593 H       
  33 H33           -8.0324     2.2567     2.1520 H       
  34 H34           -9.0637     1.5958     0.0159 H       
  35 H35           -8.0335     2.2815    -2.1128 H       
  36 H36           -5.9762     3.6346    -2.1055 H       
@<TRIPOS>BOND
   1    1    2 2
   2    1    5 1
   3    1    7 1
   4    2    3 1
   5    3    4 2
   6    3    6 1
   7    4    5 1
   8    4   22 1
   9    6   23 1
  10    6   24 1
  11    6   25 1
  12    7    8 1
  13    7   26 1
  14    8    9 ar
  15    8   13 ar
  16    9   10 ar
  17   10   11 ar
  18   10   27 1
  19   11   12 ar
  20   11   28 1
  21   12   13 ar
  22   12   29 1
  23   13   14 1
  24   14   15 1
  25   15   16 1
  26   15   30 1
  27   15   31 1
  28   16   17 ar
  29   16   21 ar
  30   17   18 ar
  31   17   32 1
  32   18   19 ar
  33   18   33 1
  34   19   20 ar
  35   19   34 1
  36   20   21 ar
  37   20   35 1
  38   21   36 1

#	End of record

