#	Name: ASD07930648
#	Creating user name:	WinNT
#	Creation time:	15. 06. 2019 21:12

#	Modifying user name:	WinNT
#	Modification time:	15. 06. 2019 21:12

#	Program:	/corina/corina34_cracker 3.40 0067  02.08.2006

@<TRIPOS>MOLECULE
ASD07930648
  43   45    0    0    0
SMALL
NO_CHARGES


@<TRIPOS>ATOM
   1 C1            -0.9743     1.6480     0.8138 C.3     
   2 N2             0.1586     0.1776    -1.5240 N.2     
   3 N3            -1.3239    -1.5099    -0.8790 N.pl3   
   4 C4            -1.2142    -2.6579     0.0270 C.3     
   5 C5            -1.6435    -2.2321     1.4379 C.3     
   6 S6            -0.6161    -0.8172     1.9447 S.o2    
   7 N7            -0.7401     0.2123     0.6404 N.am    
   8 C8            -0.6109    -0.3576    -0.6183 C.2     
   9 C9             0.2354    -3.1463     0.0597 C.3     
  10 O10           -1.2246    -0.1105     3.0169 O.2     
  11 O11            0.7572    -1.1798     1.9847 O.2     
  12 C12           -2.1097    -3.7689    -0.4576 C.ar    
  13 C13           -2.9463    -3.5599    -1.5362 C.ar    
  14 C14           -3.7714    -4.5840    -1.9824 C.ar    
  15 C15           -3.7532    -5.8161    -1.3429 C.ar    
  16 C16           -2.9149    -6.0210    -0.2643 C.ar    
  17 N17           -4.6208    -4.3740    -3.0756 N.am    
  18 C18           -5.8393    -4.9494    -3.1025 C.2     
  19 C19           -6.7927    -4.6426    -4.2286 C.3     
  20 O20           -6.1685    -5.7140    -2.2204 O.2     
  21 C21           -2.0890    -5.0005     0.1755 C.ar    
  22 F22           -1.2657    -5.2047     1.2270 F       
  23 C23           -8.1607    -5.3273    -4.2022 C.3     
  24 C24           -8.0468    -3.8335    -3.8918 C.3     
  25 H25           -0.0180     2.1658     0.8880 H       
  26 H26           -1.5297     2.0315    -0.0422 H       
  27 H27           -1.5495     1.8149     1.7245 H       
  28 H28            0.6529     0.9877    -1.3234 H       
  29 H29           -1.8936    -1.5619    -1.6623 H       
  30 H30           -2.6935    -1.9396     1.4298 H       
  31 H31           -1.4973    -3.0597     2.1320 H       
  32 H32            0.8817    -2.3426     0.4123 H       
  33 H33            0.3162    -3.9995     0.7332 H       
  34 H34            0.5409    -3.4448    -0.9431 H       
  35 H35           -2.9593    -2.6006    -2.0321 H       
  36 H36           -4.3943    -6.6137    -1.6882 H       
  37 H37           -2.9004    -6.9794     0.2335 H       
  38 H38           -4.3323    -3.8145    -3.8136 H       
  39 H39           -6.3321    -4.4757    -5.2023 H       
  40 H40           -8.6003    -5.6105    -5.1586 H       
  41 H41           -8.3711    -5.9996    -3.3705 H       
  42 H42           -8.1823    -3.5230    -2.8558 H       
  43 H43           -8.4114    -3.1339    -4.6440 H       
@<TRIPOS>BOND
   1    1    7 1
   2    1   25 1
   3    1   26 1
   4    1   27 1
   5    2    8 2
   6    2   28 1
   7    3    4 1
   8    3    8 1
   9    3   29 1
  10    4    5 1
  11    4    9 1
  12    4   12 1
  13    5    6 1
  14    5   30 1
  15    5   31 1
  16    6    7 am
  17    6   10 2
  18    6   11 2
  19    7    8 1
  20    9   32 1
  21    9   33 1
  22    9   34 1
  23   12   21 ar
  24   12   13 ar
  25   13   14 ar
  26   13   35 1
  27   14   15 ar
  28   14   17 1
  29   15   16 ar
  30   15   36 1
  31   16   21 ar
  32   16   37 1
  33   17   18 am
  34   17   38 1
  35   18   19 1
  36   18   20 2
  37   19   23 1
  38   19   24 1
  39   19   39 1
  40   21   22 1
  41   23   24 1
  42   23   40 1
  43   23   41 1
  44   24   42 1
  45   24   43 1

#	End of record

