#	Name: ASD02198048
#	Creating user name:	WinNT
#	Creation time:	15. 06. 2019 20:18

#	Modifying user name:	WinNT
#	Modification time:	15. 06. 2019 20:18

#	Program:	/corina/corina34_cracker 3.40 0067  02.08.2006

@<TRIPOS>MOLECULE
ASD02198048
  55   56    0    0    0
SMALL
NO_CHARGES


@<TRIPOS>ATOM
   1 C1            -0.8273     1.1943    -0.3292 C.2     
   2 C2            -0.7332    -0.1785    -0.2438 C.2     
   3 C3            -1.8699    -1.0455    -0.3252 C.1     
   4 S4             0.7104     1.9184    -0.1946 S.3     
   5 C5             1.5016     0.3601    -0.0201 C.2     
   6 C6             0.5684    -0.6462    -0.0709 C.2     
   7 C7             2.8885     0.1705     0.1472 C.2     
   8 O8             3.3302    -0.9467     0.3583 O.2     
   9 C9             3.8059     1.3238     0.0671 C.ar    
  10 N10            0.8885    -1.9911     0.0396 N.pl3   
  11 N11           -2.0030     1.8864    -0.5054 N.pl3   
  12 N12           -2.7717    -1.7333    -0.3898 N.1     
  13 C13           -2.0028     3.3510    -0.4718 C.3     
  14 C14            4.3661     1.8564     1.2309 C.ar    
  15 C15            5.2219     2.9318     1.1523 C.ar    
  16 C16            5.5317     3.4914    -0.0828 C.ar    
  17 C17            4.9807     2.9700    -1.2444 C.ar    
  18 C18            4.1233     1.8856    -1.1782 C.ar    
  19 O19            3.5834     1.3742    -2.3134 O.3     
  20 C20            3.9434     2.0047    -3.5442 C.3     
  21 C21           -1.7555     3.8934    -1.8809 C.3     
  22 C22           -1.5850     5.4126    -1.8200 C.3     
  23 C23           -0.3319     5.7532    -1.0109 C.3     
  24 O24            6.3760     4.5521    -0.1518 O.3     
  25 C25            6.9074     5.0397     1.0818 C.3     
  26 C26           -3.3369     3.8421     0.0284 C.2     
  27 O27           -4.1992     3.0500     0.3264 O.2     
  28 O28           -3.5671     5.1595     0.1430 O.3     
  29 C29           -1.4424     5.9672    -3.2388 C.3     
  30 C30           -4.8744     5.5602     0.6315 C.3     
  31 H31            1.8123    -2.2615     0.1596 H       
  32 H32            0.1886    -2.6613    -0.0032 H       
  33 H33           -2.8321     1.4047    -0.6518 H       
  34 H34           -1.2141     3.6991     0.1951 H       
  35 H35            4.1277     1.4248     2.1918 H       
  36 H36            5.6539     3.3427     2.0529 H       
  37 H37            5.2239     3.4081    -2.2011 H       
  38 H38            5.0232     1.9451    -3.6807 H       
  39 H39            3.4442     1.4994    -4.3709 H       
  40 H40            3.6374     3.0506    -3.5197 H       
  41 H41           -0.8515     3.4425    -2.2903 H       
  42 H42           -2.6047     3.6483    -2.5188 H       
  43 H43           -2.4580     5.8573    -1.3421 H       
  44 H44           -0.2528     6.8348    -0.9017 H       
  45 H45           -0.3994     5.2925    -0.0254 H       
  46 H46            0.5492     5.3750    -1.5293 H       
  47 H47            7.5652     5.8862     0.8848 H       
  48 H48            6.0900     5.3577     1.7291 H       
  49 H49            7.4723     4.2472     1.5726 H       
  50 H50           -2.3351     5.7246    -3.8152 H       
  51 H51           -1.3210     7.0495    -3.1953 H       
  52 H52           -0.5694     5.5225    -3.7166 H       
  53 H53           -5.6446     5.1859    -0.0429 H       
  54 H54           -5.0321     5.1476     1.6279 H       
  55 H55           -4.9279     6.6480     0.6760 H       
@<TRIPOS>BOND
   1    1    2 2
   2    1    4 1
   3    1   11 1
   4    2    3 1
   5    2    6 1
   6    3   12 3
   7    4    5 1
   8    5    6 2
   9    5    7 1
  10    6   10 1
  11    7    8 2
  12    7    9 1
  13    9   14 ar
  14    9   18 ar
  15   10   31 1
  16   10   32 1
  17   11   13 1
  18   11   33 1
  19   13   21 1
  20   13   26 1
  21   13   34 1
  22   14   15 ar
  23   14   35 1
  24   15   16 ar
  25   15   36 1
  26   16   17 ar
  27   16   24 1
  28   17   18 ar
  29   17   37 1
  30   18   19 1
  31   19   20 1
  32   20   38 1
  33   20   39 1
  34   20   40 1
  35   21   22 1
  36   21   41 1
  37   21   42 1
  38   22   23 1
  39   22   29 1
  40   22   43 1
  41   23   44 1
  42   23   45 1
  43   23   46 1
  44   24   25 1
  45   25   47 1
  46   25   48 1
  47   25   49 1
  48   26   27 2
  49   26   28 1
  50   28   30 1
  51   29   50 1
  52   29   51 1
  53   29   52 1
  54   30   53 1
  55   30   54 1
  56   30   55 1

#	End of record

