#	Name: ASD02039298
#	Creating user name:	WinNT
#	Creation time:	15. 06. 2019 20:18

#	Modifying user name:	WinNT
#	Modification time:	15. 06. 2019 20:18

#	Program:	/corina/corina34_cracker 3.40 0067  02.08.2006

@<TRIPOS>MOLECULE
ASD02039298
  45   47    0    0    0
SMALL
NO_CHARGES


@<TRIPOS>ATOM
   1 C1             0.1373     1.1863    -0.3132 C.ar    
   2 C2             0.5204    -0.0914     0.0538 C.ar    
   3 C3            -0.3826    -1.1370    -0.0123 C.ar    
   4 C4            -1.6753    -0.9106    -0.4458 C.ar    
   5 C5            -2.0676     0.3785    -0.8173 C.ar    
   6 C6            -1.1514     1.4280    -0.7429 C.ar    
   7 C7            -3.4484     0.6295    -1.2826 C.2     
   8 C8             1.1288     2.3187    -0.2376 C.3     
   9 N9             1.9441     2.3360    -1.4546 N.am    
  10 C10            1.4494     3.0089    -2.6582 C.3     
  11 C11            3.1493     1.7328    -1.4669 C.2     
  12 C12            3.6021     0.9676    -0.2923 C.2     
  13 C13            4.7354     0.2127    -0.2096 C.2     
  14 C14            2.4314     4.1084    -3.0679 C.3     
  15 N15            2.9706     0.8900     0.9070 N.2     
  16 C16            3.6643     0.1247     1.6992 C.2     
  17 N17            4.7670    -0.3132     1.0375 N.pl3   
  18 O18            3.8631     1.8203    -2.4478 O.2     
  19 C19            5.8038    -1.1968     1.5765 C.3     
  20 F20           -2.5569    -1.9322    -0.5106 F       
  21 C21            1.3194     1.9921    -3.7940 C.3     
  22 N22           -4.4355    -0.3054    -1.3962 N.pl3   
  23 N23           -3.9366     1.7928    -1.6523 N.2     
  24 C24           -5.2171     1.6405    -2.0103 C.2     
  25 C25           -5.5495     0.3426    -1.8592 C.2     
  26 H26            1.5294    -0.2733     0.3932 H       
  27 H27           -0.0769    -2.1322     0.2750 H       
  28 H28           -1.4482     2.4264    -1.0285 H       
  29 H29            0.5942     3.2641    -0.1450 H       
  30 H30            1.7738     2.1796     0.6299 H       
  31 H31            0.4744     3.4508    -2.4527 H       
  32 H32            5.4671     0.0629    -0.9897 H       
  33 H33            3.4223     3.6765    -3.2086 H       
  34 H34            2.0981     4.5643    -4.0002 H       
  35 H35            2.4735     4.8675    -2.2869 H       
  36 H36            3.4064    -0.1201     2.7190 H       
  37 H37            5.5360    -2.2346     1.3779 H       
  38 H38            6.7578    -0.9702     1.1003 H       
  39 H39            5.8891    -1.0430     2.6522 H       
  40 H40            0.5857     1.2338    -3.5206 H       
  41 H41            0.9951     2.5009    -4.7018 H       
  42 H42            2.2848     1.5172    -3.9689 H       
  43 H43           -4.3619    -1.2502    -1.1889 H       
  44 H44           -5.8734     2.4245    -2.3580 H       
  45 H45           -6.5121    -0.1019    -2.0645 H       
@<TRIPOS>BOND
   1    1    2 ar
   2    1    8 1
   3    1    6 ar
   4    2    3 ar
   5    2   26 1
   6    3    4 ar
   7    3   27 1
   8    4    5 ar
   9    4   20 1
  10    5    6 ar
  11    5    7 1
  12    6   28 1
  13    7   22 1
  14    7   23 2
  15    8    9 1
  16    8   29 1
  17    8   30 1
  18    9   10 1
  19    9   11 am
  20   10   21 1
  21   10   14 1
  22   10   31 1
  23   11   12 1
  24   11   18 2
  25   12   13 2
  26   12   15 1
  27   13   17 1
  28   13   32 1
  29   14   33 1
  30   14   34 1
  31   14   35 1
  32   15   16 2
  33   16   17 1
  34   16   36 1
  35   17   19 1
  36   19   37 1
  37   19   38 1
  38   19   39 1
  39   21   40 1
  40   21   41 1
  41   21   42 1
  42   22   25 1
  43   22   43 1
  44   23   24 1
  45   24   25 2
  46   24   44 1
  47   25   45 1

#	End of record

