#	Name: ASD01910721
#	Creating user name:	WinNT
#	Creation time:	15. 06. 2019 19:56

#	Modifying user name:	WinNT
#	Modification time:	15. 06. 2019 19:56

#	Program:	/corina/corina34_cracker 3.40 0067  02.08.2006

@<TRIPOS>MOLECULE
ASD01910721
  51   54    0    0    0
SMALL
NO_CHARGES


@<TRIPOS>ATOM
   1 C1             0.0597     1.7631    -0.3702 C.ar    
   2 C2             0.0023     0.3762    -0.4005 C.ar    
   3 C3             1.1881    -0.3348    -0.3550 C.ar    
   4 C4             2.3910     0.3598    -0.2809 C.ar    
   5 N5             2.4040     1.6838    -0.2537 N.ar    
   6 C6             1.2888     2.3876    -0.2962 C.ar    
   7 N7             3.5900    -0.3419    -0.2346 N.3     
   8 C8             4.7345     0.5758    -0.1590 C.3     
   9 C9             6.0170    -0.2304     0.0722 C.3     
  10 N10            6.1149    -1.2621    -0.9714 N.am    
  11 C11            4.9523    -2.1335    -1.1998 C.3     
  12 C12            3.7117    -1.2524    -1.3810 C.3     
  13 C13            7.2404    -1.4055    -1.6989 C.2     
  14 C14            7.3646    -2.5262    -2.6556 C.ar    
  15 O15            8.1533    -0.6137    -1.5687 O.2     
  16 C16            7.9775    -2.3242    -3.8942 C.ar    
  17 C17            8.0948    -3.3692    -4.7896 C.ar    
  18 C18            7.6080    -4.6200    -4.4682 C.ar    
  19 C19            6.9922    -4.8372    -3.2315 C.ar    
  20 C20            6.8756    -3.7870    -2.3209 C.ar    
  21 C21            6.4874    -6.1353    -2.8988 C.1     
  22 C22            6.0735    -7.1995    -2.6261 C.1     
  23 C23            5.5687    -8.4976    -2.2934 C.ar    
  24 C24            7.7397    -5.7539    -5.4521 C.3     
  25 C25            4.9548    -8.7069    -1.0560 C.ar    
  26 C26            4.4725    -9.9668    -0.7502 C.ar    
  27 C27            4.6180   -10.9787    -1.6893 C.ar    
  28 C28            5.2361   -10.7029    -2.8957 C.ar    
  29 N29            5.6826    -9.4940    -3.1667 N.ar    
  30 H30           -0.8477     2.3476    -0.4087 H       
  31 H31           -0.9468    -0.1360    -0.4579 H       
  32 H32            1.1801    -1.4145    -0.3763 H       
  33 H33            1.3381     3.4662    -0.2721 H       
  34 H34            4.8176     1.1313    -1.0932 H       
  35 H35            4.5886     1.2720     0.6669 H       
  36 H36            6.8810     0.4316     0.0149 H       
  37 H37            5.9797    -0.7043     1.0532 H       
  38 H38            5.1123    -2.7297    -2.0981 H       
  39 H39            4.8126    -2.7903    -0.3411 H       
  40 H40            2.8240    -1.8820    -1.4413 H       
  41 H41            3.8090    -0.6714    -2.2981 H       
  42 H42            8.3605    -1.3480    -4.1527 H       
  43 H43            8.5694    -3.2068    -5.7461 H       
  44 H44            6.4014    -3.9486    -1.3641 H       
  45 H45            8.6809    -6.2763    -5.2807 H       
  46 H46            6.9096    -6.4480    -5.3199 H       
  47 H47            7.7237    -5.3577    -6.4674 H       
  48 H48            4.8586    -7.8968    -0.3483 H       
  49 H49            3.9936   -10.1590     0.1985 H       
  50 H50            4.2520   -11.9730    -1.4796 H       
  51 H51            5.3501   -11.4890    -3.6274 H       
@<TRIPOS>BOND
   1    1    2 ar
   2    1    6 ar
   3    1   30 1
   4    2    3 ar
   5    2   31 1
   6    3    4 ar
   7    3   32 1
   8    4    5 ar
   9    4    7 1
  10    5    6 ar
  11    6   33 1
  12    7    8 1
  13    7   12 1
  14    8    9 1
  15    8   34 1
  16    8   35 1
  17    9   10 1
  18    9   36 1
  19    9   37 1
  20   10   11 1
  21   10   13 am
  22   11   12 1
  23   11   38 1
  24   11   39 1
  25   12   40 1
  26   12   41 1
  27   13   14 1
  28   13   15 2
  29   14   16 ar
  30   14   20 ar
  31   16   17 ar
  32   16   42 1
  33   17   18 ar
  34   17   43 1
  35   18   19 ar
  36   18   24 1
  37   19   20 ar
  38   19   21 1
  39   20   44 1
  40   21   22 3
  41   22   23 1
  42   23   25 ar
  43   23   29 ar
  44   24   45 1
  45   24   46 1
  46   24   47 1
  47   25   26 ar
  48   25   48 1
  49   26   27 ar
  50   26   49 1
  51   27   28 ar
  52   27   50 1
  53   28   29 ar
  54   28   51 1

#	End of record

