#	Name: ASD03320229
#	Creating user name:	WinNT
#	Creation time:	15. 06. 2019 20:36

#	Modifying user name:	WinNT
#	Modification time:	15. 06. 2019 20:36

#	Program:	/corina/corina34_cracker 3.40 0067  02.08.2006

@<TRIPOS>MOLECULE
ASD03320229
  53   56    0    0    0
SMALL
NO_CHARGES


@<TRIPOS>ATOM
   1 C1             0.0102     1.3277    -0.0222 C.ar    
   2 N2             0.0321    -0.0018    -0.0344 N.ar    
   3 C3             1.1745    -0.6648    -0.0488 C.ar    
   4 N4             2.3443    -0.0639    -0.0521 N.ar    
   5 C5             1.2343     2.0145    -0.0251 C.ar    
   6 C6             1.6304     3.4249    -0.0153 C.2     
   7 C7             2.4257     1.2663    -0.0407 C.ar    
   8 N8             3.4563     2.1596    -0.0398 N.pl3   
   9 N9             2.9453     3.4617    -0.0247 N.2     
  10 N10           -1.1878     2.0161    -0.0128 N.pl3   
  11 C11            4.8787     1.8095    -0.0531 C.3     
  12 C12            5.5375     2.3994    -1.3017 C.3     
  13 C13            5.5552     2.3765     1.1966 C.3     
  14 C14            0.7496     4.5539     0.0007 C.1     
  15 C15            0.0275     5.4795     0.0138 C.1     
  16 C16           -0.8533     6.6085     0.0298 C.ar    
  17 C17           -2.5670     8.7901     0.0607 C.ar    
  18 C18           -3.0839     7.5076     0.0587 C.ar    
  19 C19           -2.2383     6.4179     0.0433 C.ar    
  20 C20           -0.3321     7.9038     0.0378 C.ar    
  21 C21           -1.1916     8.9911     0.0532 C.ar    
  22 N22           -0.6749    10.2909     0.0553 N.am    
  23 C23            0.4688    10.5603     0.7155 C.2     
  24 C24            1.0777    11.9039     0.6209 C.ar    
  25 O25            0.9995     9.6984     1.3887 O.2     
  26 C26            1.0417    14.1494    -0.2307 C.ar    
  27 C27            0.4680    12.8974    -0.1466 C.ar    
  28 C28            2.2624    12.1863     1.3035 C.ar    
  29 C29            2.8254    13.4421     1.2110 C.ar    
  30 C30            2.2187    14.4209     0.4436 C.ar    
  31 C31            4.1039    13.7489     1.9475 C.3     
  32 F32            5.1975    13.4536     1.1265 F       
  33 F33            4.1307    15.1051     2.2901 F       
  34 F34            4.1703    12.9730     3.1097 F       
  35 H35            1.1468    -1.7444    -0.0580 H       
  36 H36           -2.0269     1.5294    -0.0151 H       
  37 H37           -1.1898     2.9861    -0.0040 H       
  38 H38            4.9859     0.7248    -0.0638 H       
  39 H39            6.5958     2.1389    -1.3116 H       
  40 H40            5.0555     1.9955    -2.1920 H       
  41 H41            5.4303     3.4841    -1.2910 H       
  42 H42            5.0859     1.9562     2.0861 H       
  43 H43            6.6136     2.1160     1.1867 H       
  44 H44            5.4481     3.4611     1.2073 H       
  45 H45           -3.2346     9.6390     0.0724 H       
  46 H46           -4.1535     7.3585     0.0649 H       
  47 H47           -2.6460     5.4178     0.0414 H       
  48 H48            0.7368     8.0580     0.0323 H       
  49 H49           -1.1397    10.9983    -0.4185 H       
  50 H50            0.5711    14.9189    -0.8245 H       
  51 H51           -0.4507    12.6865    -0.6738 H       
  52 H52            2.7367    11.4233     1.9030 H       
  53 H53            2.6639    15.4024     0.3742 H       
@<TRIPOS>BOND
   1    1    2 ar
   2    1    5 ar
   3    1   10 1
   4    2    3 ar
   5    3    4 ar
   6    3   35 1
   7    4    7 ar
   8    5    7 ar
   9    5    6 1
  10    6    9 2
  11    6   14 1
  12    7    8 1
  13    8    9 1
  14    8   11 1
  15   10   36 1
  16   10   37 1
  17   11   12 1
  18   11   13 1
  19   11   38 1
  20   12   39 1
  21   12   40 1
  22   12   41 1
  23   13   42 1
  24   13   43 1
  25   13   44 1
  26   14   15 3
  27   15   16 1
  28   16   20 ar
  29   16   19 ar
  30   17   18 ar
  31   17   21 ar
  32   17   45 1
  33   18   19 ar
  34   18   46 1
  35   19   47 1
  36   20   21 ar
  37   20   48 1
  38   21   22 1
  39   22   23 am
  40   22   49 1
  41   23   24 1
  42   23   25 2
  43   24   28 ar
  44   24   27 ar
  45   26   27 ar
  46   26   30 ar
  47   26   50 1
  48   27   51 1
  49   28   29 ar
  50   28   52 1
  51   29   30 ar
  52   29   31 1
  53   30   53 1
  54   31   32 1
  55   31   33 1
  56   31   34 1

#	End of record

