#	Name: ASD01820188
#	Creating user name:	WinNT
#	Creation time:	15. 06. 2019 19:36

#	Modifying user name:	WinNT
#	Modification time:	15. 06. 2019 19:36

#	Program:	/corina/corina34_cracker 3.40 0067  02.08.2006

@<TRIPOS>MOLECULE
ASD01820188
  96  100    0    0    0
SMALL
NO_CHARGES


@<TRIPOS>ATOM
   1 N1             1.0977     1.0417     1.4246 N.am    
   2 C2             0.9720    -0.1782     0.8683 C.2     
   3 C3             2.3261     1.8030     1.1846 C.3     
   4 C4             2.1562     2.6633    -0.0692 C.3     
   5 C5             3.4391     3.4585    -0.3197 C.3     
   6 N6             3.5160     3.8294    -1.7391 N.4     
   7 C7             4.6480     4.7424    -1.9460 C.3     
   8 C8             4.7281     5.1287    -3.4242 C.3     
   9 C9             5.9071     6.0796    -3.6397 C.3     
  10 C10            5.9872     6.4660    -5.1180 C.3     
  11 C11            7.1663     7.4169    -5.3335 C.3     
  12 C12            7.2463     7.8032    -6.8117 C.3     
  13 N13            8.3784     8.7162    -7.0187 N.4     
  14 C14            8.4552     9.0872    -8.4380 C.3     
  15 C15            9.6343    10.0381    -8.6535 C.3     
  16 N16           10.8433    11.3349   -10.3381 N.am    
  17 O17            1.8710    -0.6256     0.1823 O.2     
  18 C18            9.7143    10.4244   -10.1317 C.3     
  19 C19           12.0945    10.9406   -10.6360 C.2     
  20 C20           12.9479    12.1404   -10.7667 C.ar    
  21 C21           12.1031    13.2428   -10.5243 C.ar    
  22 C22           10.7639    12.6755   -10.2602 C.2     
  23 C23           14.2868    12.3487   -11.0548 C.ar    
  24 C24           14.7866    13.6411   -11.1027 C.ar    
  25 C25           13.9586    14.7216   -10.8651 C.ar    
  26 C26           12.6165    14.5284   -10.5752 C.ar    
  27 O27           12.4615     9.7912   -10.7740 O.2     
  28 O28            9.7615    13.3128   -10.0074 O.2     
  29 C29            8.1873     9.9251    -6.2062 C.3     
  30 C30            9.6247     8.0494    -6.6187 C.3     
  31 C31            3.7070     2.6205    -2.5515 C.3     
  32 C32            2.2697     4.4963    -2.1391 C.3     
  33 C33           -0.2460    -0.9725     1.0862 C.ar    
  34 C34           -1.2756    -0.4294     1.8881 C.ar    
  35 C35           -1.1105     0.8542     2.4567 C.ar    
  36 C36            0.1340     1.5899     2.1887 C.2     
  37 O37            0.2978     2.6958     2.6674 O.2     
  38 C38           -0.4172    -2.2328     0.5332 C.ar    
  39 C39           -1.5874    -2.9454     0.7683 C.ar    
  40 C40           -2.5921    -2.4364     1.5400 C.ar    
  41 C41           -2.4583    -1.1621     2.1187 C.ar    
  42 C42           -3.4640    -0.5946     2.9208 C.ar    
  43 C43           -3.2880     0.6468     3.4609 C.ar    
  44 C44           -2.1264     1.3784     3.2419 C.ar    
  45 C45            1.8722     1.7613    -1.2719 C.3     
  46 C46            0.9876     3.6304     0.1304 C.3     
  47 H47            2.5285     2.4456     2.0415 H       
  48 H48            3.1587     1.1141     1.0425 H       
  49 H49            3.4326     4.3608     0.2918 H       
  50 H50            4.3026     2.8475    -0.0566 H       
  51 H51            4.5063     5.6394    -1.3432 H       
  52 H52            5.5728     4.2476    -1.6492 H       
  53 H53            4.8698     4.2317    -4.0270 H       
  54 H54            3.8033     5.6236    -3.7210 H       
  55 H55            5.7654     6.9767    -3.0369 H       
  56 H56            6.8319     5.5848    -3.3429 H       
  57 H57            6.1289     5.5690    -5.7208 H       
  58 H58            5.0624     6.9608    -5.4148 H       
  59 H59            7.0245     8.3139    -4.7307 H       
  60 H60            8.0910     6.9221    -5.0367 H       
  61 H61            7.3881     6.9062    -7.4146 H       
  62 H62            6.3215     8.2980    -7.1085 H       
  63 H63            8.5970     8.1902    -9.0408 H       
  64 H64            7.5304     9.5820    -8.7348 H       
  65 H65            9.4925    10.9351    -8.0507 H       
  66 H66           10.5590     9.5433    -8.3567 H       
  67 H67            9.8561     9.5274   -10.7345 H       
  68 H68            8.7895    10.9192   -10.4285 H       
  69 H69           14.9386    11.5079   -11.2410 H       
  70 H70           15.8304    13.8045   -11.3269 H       
  71 H71           14.3597    15.7236   -10.9053 H       
  72 H72           11.9741    15.3766   -10.3904 H       
  73 H73            8.1303     9.6499    -5.1531 H       
  74 H74            9.0273    10.6026    -6.3598 H       
  75 H75            7.2625    10.4199    -6.5030 H       
  76 H76            9.7664     7.1524    -7.2215 H       
  77 H77           10.4647     8.7268    -6.7722 H       
  78 H78            9.5677     7.7741    -5.5655 H       
  79 H79            2.7354     2.2161    -2.8352 H       
  80 H80            4.2723     2.8715    -3.4490 H       
  81 H81            4.2552     1.8769    -1.9730 H       
  82 H82            1.9078     5.1136    -1.3168 H       
  83 H83            2.4570     5.1245    -3.0099 H       
  84 H84            1.5194     3.7455    -2.3873 H       
  85 H85            0.3603    -2.6615    -0.0817 H       
  86 H86           -1.7048    -3.9252     0.3295 H       
  87 H87           -3.4903    -3.0127     1.7055 H       
  88 H88           -4.3763    -1.1409     3.1094 H       
  89 H89           -4.0695     1.0701     4.0744 H       
  90 H90           -2.0156     2.3581     3.6828 H       
  91 H91            1.0699     1.0665    -1.0235 H       
  92 H92            1.5723     2.3735    -2.1224 H       
  93 H93            2.7719     1.2013    -1.5266 H       
  94 H94            1.2732     4.4031     0.8441 H       
  95 H95            0.7319     4.0929    -0.8229 H       
  96 H96            0.1250     3.0841     0.5121 H       
@<TRIPOS>BOND
   1    1    2 am
   2    1    3 1
   3    1   36 am
   4    2   17 2
   5    2   33 1
   6    3    4 1
   7    3   47 1
   8    3   48 1
   9    4    5 1
  10    4   45 1
  11    4   46 1
  12    5    6 1
  13    5   49 1
  14    5   50 1
  15    6    7 1
  16    6   31 1
  17    6   32 1
  18    7    8 1
  19    7   51 1
  20    7   52 1
  21    8    9 1
  22    8   53 1
  23    8   54 1
  24    9   10 1
  25    9   55 1
  26    9   56 1
  27   10   11 1
  28   10   57 1
  29   10   58 1
  30   11   12 1
  31   11   59 1
  32   11   60 1
  33   12   13 1
  34   12   61 1
  35   12   62 1
  36   13   14 1
  37   13   29 1
  38   13   30 1
  39   14   15 1
  40   14   63 1
  41   14   64 1
  42   15   18 1
  43   15   65 1
  44   15   66 1
  45   16   19 am
  46   16   18 1
  47   16   22 am
  48   18   67 1
  49   18   68 1
  50   19   20 1
  51   19   27 2
  52   20   21 ar
  53   20   23 ar
  54   21   22 1
  55   21   26 ar
  56   22   28 2
  57   23   24 ar
  58   23   69 1
  59   24   25 ar
  60   24   70 1
  61   25   26 ar
  62   25   71 1
  63   26   72 1
  64   29   73 1
  65   29   74 1
  66   29   75 1
  67   30   76 1
  68   30   77 1
  69   30   78 1
  70   31   79 1
  71   31   80 1
  72   31   81 1
  73   32   82 1
  74   32   83 1
  75   32   84 1
  76   33   34 ar
  77   33   38 ar
  78   34   35 ar
  79   34   41 ar
  80   35   36 1
  81   35   44 ar
  82   36   37 2
  83   38   39 ar
  84   38   85 1
  85   39   40 ar
  86   39   86 1
  87   40   41 ar
  88   40   87 1
  89   41   42 ar
  90   42   43 ar
  91   42   88 1
  92   43   44 ar
  93   43   89 1
  94   44   90 1
  95   45   91 1
  96   45   92 1
  97   45   93 1
  98   46   94 1
  99   46   95 1
 100   46   96 1

#	End of record

