#	Name: ASD01230721
#	Creating user name:	WinNT
#	Creation time:	15. 06. 2019 19:14

#	Modifying user name:	WinNT
#	Modification time:	15. 06. 2019 19:14

#	Program:	/corina/corina34_cracker 3.40 0067  02.08.2006

@<TRIPOS>MOLECULE
ASD01230721
  47   50    0    0    0
SMALL
NO_CHARGES


@<TRIPOS>ATOM
   1 C1            -0.2093     3.0549     1.2921 C.3     
   2 N2            -0.4749     1.7614     1.9358 N.3     
   3 C3            -1.8805     1.5551     2.2697 C.3     
   4 C4            -2.6219     2.8544     2.5560 C.3     
   5 N5            -1.7006     3.8864     3.0409 N.pl3   
   6 C6            -0.5806     4.1380     2.2906 C.2     
   7 C7            -1.9547     4.5876     4.2952 C.3     
   8 C8            -1.8619     6.0970     4.0672 C.3     
   9 S9            -0.2592     6.4948     3.3210 S.o2    
  10 N10            0.1083     5.2078     2.3611 N.am    
  11 C11            1.2517     3.1619     0.9385 C.ar    
  12 C12            1.6311     3.7337    -0.2619 C.ar    
  13 O13           -0.3909     7.5792     2.4121 O.2     
  14 O14            0.7619     6.4935     4.3092 O.2     
  15 C15            2.2106     2.6932     1.8175 C.ar    
  16 C16            3.5505     2.7901     1.4958 C.ar    
  17 C17            3.9337     3.3583     0.2893 C.ar    
  18 C18            2.9696     3.8329    -0.5885 C.ar    
  19 O19            5.2511     3.4547    -0.0295 O.3     
  20 C20            6.1543     2.8856     0.8112 C.ar    
  21 C21            6.5237     1.5592     0.6398 C.ar    
  22 C22            0.0410     0.6526     1.1219 C.3     
  23 C23            6.7131     3.6316     1.8392 C.ar    
  24 C24            7.6309     3.0507     2.6925 C.ar    
  25 C25            7.9930     1.7270     2.5230 C.ar    
  26 C26            7.4420     0.9831     1.4960 C.ar    
  27 H27           -0.8170     3.1536     0.3926 H       
  28 H28           -2.3683     1.0492     1.4366 H       
  29 H29           -1.9416     0.9152     3.1500 H       
  30 H30           -3.1008     3.2028     1.6409 H       
  31 H31           -3.3856     2.6720     3.3121 H       
  32 H32           -2.9519     4.3357     4.6562 H       
  33 H33           -1.2141     4.2862     5.0360 H       
  34 H34           -2.6627     6.4138     3.3990 H       
  35 H35           -1.9575     6.6155     5.0212 H       
  36 H36            0.8803     4.1026    -0.9449 H       
  37 H37            1.9118     2.2514     2.7566 H       
  38 H38            4.2991     2.4242     2.1829 H       
  39 H39            3.2653     4.2756    -1.5282 H       
  40 H40            6.0933     0.9775    -0.1620 H       
  41 H41            1.1177     0.7654     0.9949 H       
  42 H42           -0.1688    -0.2931     1.6214 H       
  43 H43           -0.4430     0.6629     0.1453 H       
  44 H44            6.4308     4.6656     1.9718 H       
  45 H45            8.0664     3.6310     3.4925 H       
  46 H46            8.7109     1.2747     3.1913 H       
  47 H47            7.7263    -0.0507     1.3659 H       
@<TRIPOS>BOND
   1    1    2 1
   2    1   11 1
   3    1    6 1
   4    1   27 1
   5    2    3 1
   6    2   22 1
   7    3    4 1
   8    3   28 1
   9    3   29 1
  10    4    5 1
  11    4   30 1
  12    4   31 1
  13    5    6 1
  14    5    7 1
  15    6   10 2
  16    7    8 1
  17    7   32 1
  18    7   33 1
  19    8    9 1
  20    8   34 1
  21    8   35 1
  22    9   10 am
  23    9   13 2
  24    9   14 2
  25   11   12 ar
  26   11   15 ar
  27   12   18 ar
  28   12   36 1
  29   15   16 ar
  30   15   37 1
  31   16   17 ar
  32   16   38 1
  33   17   18 ar
  34   17   19 1
  35   18   39 1
  36   19   20 1
  37   20   21 ar
  38   20   23 ar
  39   21   26 ar
  40   21   40 1
  41   22   41 1
  42   22   42 1
  43   22   43 1
  44   23   24 ar
  45   23   44 1
  46   24   25 ar
  47   24   45 1
  48   25   26 ar
  49   25   46 1
  50   26   47 1

#	End of record

