#	Name: ASD01882724
#	Creating user name:	WinNT
#	Creation time:	15. 06. 2019 19:45

#	Modifying user name:	WinNT
#	Modification time:	15. 06. 2019 19:45

#	Program:	/corina/corina34_cracker 3.40 0067  02.08.2006

@<TRIPOS>MOLECULE
ASD01882724
  48   49    0    0    0
SMALL
NO_CHARGES


@<TRIPOS>ATOM
   1 C1            -0.0133     1.3792    -0.0671 C.ar    
   2 C2             0.0059    -0.0025    -0.0802 C.ar    
   3 C3             1.2103    -0.6808    -0.1115 C.ar    
   4 C4             2.4126     0.0341    -0.1301 C.ar    
   5 C5             2.3878     1.4303    -0.1168 C.ar    
   6 C6             1.1756     2.0965    -0.0854 C.ar    
   7 O7             1.1484     3.4558    -0.0723 O.3     
   8 C8            -0.1372     4.0786    -0.0398 C.3     
   9 C9             0.0328     5.5991    -0.0294 C.3     
  10 C10           -1.3438     6.2660     0.0054 C.3     
  11 C11           -1.1737     7.7865     0.0158 C.3     
  12 O12           -2.4594     8.4094     0.0483 O.3     
  13 C13           -2.4866     9.7657     0.0613 C.ar    
  14 C14           -3.7334    11.8152     0.1124 C.ar    
  15 C15           -3.7033    10.4314     0.0986 C.ar    
  16 C16           -1.2927    10.4828     0.0430 C.ar    
  17 C17           -1.3063    11.8469     0.0567 C.ar    
  18 C18           -2.5262    12.5366     0.0889 C.ar    
  19 C19           -4.9908     9.6486     0.1236 C.3     
  20 O20           -4.9195    12.4714     0.1492 O.3     
  21 C21           -2.5436    14.0013     0.1027 C.2     
  22 O22           -3.5986    14.5963     0.0295 O.2     
  23 C23           -1.2512    14.7693     0.2077 C.3     
  24 C24            3.7014    -0.6841    -0.1631 C.2     
  25 O25            3.7199    -1.8987    -0.1742 O.2     
  26 O26            4.8576     0.0074    -0.1809 O.3     
  27 F27            1.2260    -2.0317    -0.1238 F       
  28 H28           -0.9572     1.9036    -0.0471 H       
  29 H29           -0.9226    -0.5541    -0.0655 H       
  30 H30            3.3123     1.9884    -0.1306 H       
  31 H31           -0.7067     3.7827    -0.9208 H       
  32 H32           -0.6696     3.7664     0.8587 H       
  33 H33            0.6023     5.8950     0.8516 H       
  34 H34            0.5651     5.9113    -0.9279 H       
  35 H35           -1.9133     5.9701    -0.8756 H       
  36 H36           -1.8761     5.9538     0.9039 H       
  37 H37           -0.6042     8.0824     0.8968 H       
  38 H38           -0.6414     8.0987    -0.8827 H       
  39 H39           -0.3504     9.9558     0.0181 H       
  40 H40           -0.3763    12.3959     0.0430 H       
  41 H41           -5.3270     9.4696    -0.8977 H       
  42 H42           -4.8264     8.6946     0.6245 H       
  43 H43           -5.7503    10.2156     0.6620 H       
  44 H44           -5.2407    12.6534     1.0429 H       
  45 H45           -0.4260    14.0730     0.3570 H       
  46 H46           -1.0885    15.3340    -0.7103 H       
  47 H47           -1.3044    15.4563     1.0522 H       
  48 H48            5.6763    -0.5067    -0.2023 H       
@<TRIPOS>BOND
   1    1    2 ar
   2    1    6 ar
   3    1   28 1
   4    2    3 ar
   5    2   29 1
   6    3    4 ar
   7    3   27 1
   8    4    5 ar
   9    4   24 1
  10    5    6 ar
  11    5   30 1
  12    6    7 1
  13    7    8 1
  14    8    9 1
  15    8   31 1
  16    8   32 1
  17    9   10 1
  18    9   33 1
  19    9   34 1
  20   10   11 1
  21   10   35 1
  22   10   36 1
  23   11   12 1
  24   11   37 1
  25   11   38 1
  26   12   13 1
  27   13   16 ar
  28   13   15 ar
  29   14   15 ar
  30   14   18 ar
  31   14   20 1
  32   15   19 1
  33   16   17 ar
  34   16   39 1
  35   17   18 ar
  36   17   40 1
  37   18   21 1
  38   19   41 1
  39   19   42 1
  40   19   43 1
  41   20   44 1
  42   21   22 2
  43   21   23 1
  44   23   45 1
  45   23   46 1
  46   23   47 1
  47   24   25 2
  48   24   26 1
  49   26   48 1

#	End of record

