#	Name: ASD01209402
#	Creating user name:	WinNT
#	Creation time:	15. 06. 2019 19:11

#	Modifying user name:	WinNT
#	Modification time:	15. 06. 2019 19:11

#	Program:	/corina/corina34_cracker 3.40 0067  02.08.2006

@<TRIPOS>MOLECULE
ASD01209402
  41   42    0    0    0
SMALL
NO_CHARGES


@<TRIPOS>ATOM
   1 C1             0.0762     1.5650     0.2121 C.2     
   2 C2             0.0502     0.0584     0.1854 C.3     
   3 O3             1.1169     2.1543     0.0406 O.2     
   4 O4            -1.0578     2.2522     0.4208 O.3     
   5 O5             1.3686    -0.4365    -0.0575 O.3     
   6 N6             1.0192    -2.5244    -1.1373 N.am    
   7 C7             1.4921    -1.8534     0.0807 C.3     
   8 C8             2.9462    -2.2382     0.2254 C.2     
   9 C9             3.2420    -3.0326    -0.7985 C.2     
  10 C10            2.0580    -3.2144    -1.6444 C.2     
  11 O11            2.0201    -3.8895    -2.6553 O.2     
  12 C12            4.5916    -3.6536    -1.0516 C.3     
  13 C13            3.8835    -1.8032     1.3223 C.3     
  14 C14           -0.3344    -2.4599    -1.6938 C.3     
  15 C15           -1.1229    -3.6605    -1.2376 C.ar    
  16 C16           -1.9301    -3.5714    -0.1186 C.ar    
  17 C17           -2.6539    -4.6704     0.3017 C.ar    
  18 C18           -2.5702    -5.8643    -0.4000 C.ar    
  19 C19           -1.7595    -5.9511    -1.5225 C.ar    
  20 C20           -1.0422    -4.8475    -1.9420 C.ar    
  21 O21           -3.2809    -6.9470     0.0117 O.3     
  22 C22           -3.1462    -8.1428    -0.7591 C.3     
  23 H23           -0.3073    -0.3158     1.1447 H       
  24 H24           -0.6167    -0.2795    -0.6078 H       
  25 H25           -0.9912     3.2169     0.4293 H       
  26 H26            0.9233    -2.1975     0.9445 H       
  27 H27            4.6443    -4.6228    -0.5556 H       
  28 H28            4.7352    -3.7860    -2.1239 H       
  29 H29            5.3712    -3.0013    -0.6583 H       
  30 H30            3.8372    -2.5176     2.1442 H       
  31 H31            4.9014    -1.7606     0.9348 H       
  32 H32            3.5898    -0.8168     1.6813 H       
  33 H33           -0.8260    -1.5501    -1.3493 H       
  34 H34           -0.2797    -2.4535    -2.7824 H       
  35 H35           -1.9946    -2.6419     0.4276 H       
  36 H36           -3.2840    -4.6005     1.1760 H       
  37 H37           -1.6927    -6.8793    -2.0705 H       
  38 H38           -0.4146    -4.9132    -2.8185 H       
  39 H39           -3.4681    -7.9532    -1.7831 H       
  40 H40           -2.1033    -8.4596    -0.7589 H       
  41 H41           -3.7644    -8.9276    -0.3232 H       
@<TRIPOS>BOND
   1    1    2 1
   2    1    3 2
   3    1    4 1
   4    2    5 1
   5    2   23 1
   6    2   24 1
   7    4   25 1
   8    5    7 1
   9    6    7 1
  10    6   10 am
  11    6   14 1
  12    7    8 1
  13    7   26 1
  14    8    9 2
  15    8   13 1
  16    9   10 1
  17    9   12 1
  18   10   11 2
  19   12   27 1
  20   12   28 1
  21   12   29 1
  22   13   30 1
  23   13   31 1
  24   13   32 1
  25   14   15 1
  26   14   33 1
  27   14   34 1
  28   15   16 ar
  29   15   20 ar
  30   16   17 ar
  31   16   35 1
  32   17   18 ar
  33   17   36 1
  34   18   19 ar
  35   18   21 1
  36   19   20 ar
  37   19   37 1
  38   20   38 1
  39   21   22 1
  40   22   39 1
  41   22   40 1
  42   22   41 1

#	End of record

