#	Name: ASD01913973
#	Creating user name:	WinNT
#	Creation time:	15. 06. 2019 20:02

#	Modifying user name:	WinNT
#	Modification time:	15. 06. 2019 20:02

#	Program:	/corina/corina34_cracker 3.40 0067  02.08.2006

@<TRIPOS>MOLECULE
ASD01913973
  53   57    0    0    0
SMALL
NO_CHARGES


@<TRIPOS>ATOM
   1 C1            -0.1445     1.4150     0.1991 C.2     
   2 C2            -0.2725     0.0449     0.1240 C.2     
   3 N3             1.1682     1.6983     0.3012 N.pl3   
   4 N4             1.8650     0.4778     0.3061 N.2     
   5 C5             0.9959    -0.5016     0.1997 C.2     
   6 C6             1.3250    -1.9718     0.1664 C.3     
   7 C7            -1.6146    -0.6214    -0.0228 C.3     
   8 C8            -2.6809     0.2019     0.6963 C.3     
   9 C9            -2.5807     1.6714     0.3956 C.ar    
  10 C10           -1.3398     2.2812     0.1817 C.ar    
  11 C11           -3.7254     2.4428     0.3321 C.ar    
  12 C12           -3.6384     3.7996     0.0817 C.ar    
  13 C13           -2.4081     4.4045    -0.1057 C.ar    
  14 C14           -1.2539     3.6469    -0.0551 C.ar    
  15 C15            2.2350    -2.2650    -1.0306 C.3     
  16 N16            2.6510    -3.6730    -0.9746 N.am    
  17 C17            3.2734    -4.1773     0.2571 C.3     
  18 C18            2.3518    -3.8627     1.4397 C.3     
  19 C19            2.0462    -2.3632     1.4582 C.3     
  20 C20            2.4650    -4.4866    -2.0329 C.2     
  21 C21            2.9980    -5.8642    -2.0082 C.ar    
  22 C22            2.2393    -6.9184    -2.5212 C.ar    
  23 C23            2.7413    -8.2018    -2.4957 C.ar    
  24 C24            3.9971    -8.4472    -1.9614 C.ar    
  25 C25            4.7544    -7.4042    -1.4502 C.ar    
  26 C26            4.2647    -6.1160    -1.4769 C.ar    
  27 F27            4.4843    -9.7070    -1.9383 F       
  28 O28            1.8586    -4.0869    -3.0078 O.2     
  29 C29            1.7616     3.0349     0.3902 C.3     
  30 H30            0.4048    -2.5486     0.0738 H       
  31 H31           -1.8677    -0.6978    -1.0802 H       
  32 H32           -1.5731    -1.6200     0.4122 H       
  33 H33           -3.6651    -0.1534     0.3910 H       
  34 H34           -2.5738     0.0545     1.7710 H       
  35 H35           -4.6920     1.9838     0.4784 H       
  36 H36           -4.5394     4.3931     0.0315 H       
  37 H37           -2.3502     5.4669    -0.2906 H       
  38 H38           -0.2908     4.1136    -0.2001 H       
  39 H39            1.6907    -2.0814    -1.9570 H       
  40 H40            3.1142    -1.6222    -0.9874 H       
  41 H41            3.4142    -5.2555     0.1804 H       
  42 H42            4.2372    -3.6904     0.4053 H       
  43 H43            1.4222    -4.4221     1.3354 H       
  44 H44            2.8445    -4.1451     2.3700 H       
  45 H45            2.9782    -1.8036     1.5376 H       
  46 H46            1.4105    -2.1327     2.3131 H       
  47 H47            1.2608    -6.7285    -2.9370 H       
  48 H48            2.1554    -9.0178    -2.8922 H       
  49 H49            5.7316    -7.6009    -1.0346 H       
  50 H50            4.8553    -5.3044    -1.0785 H       
  51 H51            1.7276     3.3794     1.4237 H       
  52 H52            2.7977     2.9955     0.0542 H       
  53 H53            1.2008     3.7241    -0.2412 H       
@<TRIPOS>BOND
   1    1    2 2
   2    1    3 1
   3    1   10 1
   4    2    7 1
   5    2    5 1
   6    3    4 1
   7    3   29 1
   8    4    5 2
   9    5    6 1
  10    6   15 1
  11    6   19 1
  12    6   30 1
  13    7    8 1
  14    7   31 1
  15    7   32 1
  16    8    9 1
  17    8   33 1
  18    8   34 1
  19    9   10 ar
  20    9   11 ar
  21   10   14 ar
  22   11   12 ar
  23   11   35 1
  24   12   13 ar
  25   12   36 1
  26   13   14 ar
  27   13   37 1
  28   14   38 1
  29   15   16 1
  30   15   39 1
  31   15   40 1
  32   16   17 1
  33   16   20 am
  34   17   18 1
  35   17   41 1
  36   17   42 1
  37   18   19 1
  38   18   43 1
  39   18   44 1
  40   19   45 1
  41   19   46 1
  42   20   21 1
  43   20   28 2
  44   21   22 ar
  45   21   26 ar
  46   22   23 ar
  47   22   47 1
  48   23   24 ar
  49   23   48 1
  50   24   25 ar
  51   24   27 1
  52   25   26 ar
  53   25   49 1
  54   26   50 1
  55   29   51 1
  56   29   52 1
  57   29   53 1

#	End of record

