#	Name: ASD05730057
#	Creating user name:	WinNT
#	Creation time:	15. 06. 2019 21:02

#	Modifying user name:	WinNT
#	Modification time:	15. 06. 2019 21:02

#	Program:	/corina/corina34_cracker 3.40 0067  02.08.2006

@<TRIPOS>MOLECULE
ASD05730057
  76   82    0    0    0
SMALL
NO_CHARGES


@<TRIPOS>ATOM
   1 C1            -0.7140     1.7147     0.5739 C.3     
   2 C2            -0.5857     0.2156     0.4886 C.ar    
   3 C3            -1.0242    -0.5750     1.5350 C.ar    
   4 C4            -0.9085    -1.9491     1.4599 C.ar    
   5 C5            -0.3509    -2.5369     0.3316 C.ar    
   6 C6             0.0885    -1.7399    -0.7177 C.ar    
   7 C7            -0.0350    -0.3666    -0.6384 C.ar    
   8 N8            -0.2319    -3.9276     0.2525 N.pl3   
   9 C9             0.0299    -4.6648     1.3920 C.ar    
  10 N10            0.0294    -5.9864     1.3108 N.ar    
  11 C11            0.2770    -6.7286     2.3842 C.ar    
  12 C12            0.5401    -6.0807     3.6103 C.ar    
  13 C13            0.5291    -4.6785     3.6443 C.ar    
  14 N14            0.2780    -4.0214     2.5273 N.ar    
  15 N15            0.2781    -8.0988     2.3093 N.am    
  16 C16            0.5294    -8.8463     3.4012 C.2     
  17 C17            0.8058    -8.2056     4.6889 C.2     
  18 C18            0.8083    -6.8397     4.7731 C.2     
  19 C19            0.0025    -8.7552     1.0289 C.3     
  20 O20            0.5265   -10.0616     3.3173 O.2     
  21 C21            1.0814    -9.0292     5.8900 C.2     
  22 C22            1.3148    -8.9655     0.2708 C.3     
  23 N23            0.5166   -10.2176     6.1868 N.2     
  24 O24            0.4013     2.3274    -0.0788 O.3     
  25 C25            1.9534    -8.7257     6.8881 C.2     
  26 N26            1.8931    -9.7542     7.7879 N.am    
  27 C27            0.9978   -10.6505     7.3184 C.2     
  28 S28            2.7610    -9.8796     9.1926 S.o2    
  29 C29            2.2151    -8.5884    10.2601 C.ar    
  30 O30            2.3630   -11.0998     9.8026 O.2     
  31 C31            1.0961    -8.7555    11.0615 C.ar    
  32 C32           -2.0077     2.1571    -0.1150 C.3     
  33 N33           -2.0895     3.6248    -0.0965 N.3     
  34 C34           -0.9285     4.2198    -0.7744 C.3     
  35 C35            0.3543     3.7568    -0.0788 C.3     
  36 C36           -3.3461     4.0897    -0.6989 C.3     
  37 C37            1.2538    -9.7452    -1.0442 C.3     
  38 C38            1.4862    -8.2330    -1.0614 C.3     
  39 C39            2.8181    -7.4952     6.9844 C.3     
  40 C40            2.8977    -7.3832    10.3229 C.ar    
  41 C41            2.4400    -6.3934    11.1719 C.ar    
  42 N42            1.3685    -6.5856    11.9162 N.ar    
  43 C43            0.6977    -7.7205    11.8861 C.ar    
  44 O44            4.1097    -9.5812     8.8590 O.2     
  45 H45           -0.7365     2.0191     1.6203 H       
  46 H46           -1.4573    -0.1173     2.4122 H       
  47 H47           -1.2508    -2.5660     2.2776 H       
  48 H48            0.5228    -2.1937    -1.5962 H       
  49 H49            0.3062     0.2537    -1.4540 H       
  50 H50           -0.3330    -4.3752    -0.6021 H       
  51 H51            0.7258    -4.1476     4.5640 H       
  52 H52            1.0100    -6.3488     5.7137 H       
  53 H53           -0.4713    -9.7200     1.2098 H       
  54 H54           -0.6635    -8.1289     0.4355 H       
  55 H55            2.2010    -9.0950     0.8920 H       
  56 H56            0.7243   -11.5761     7.8030 H       
  57 H57            0.5425    -9.6827    11.0412 H       
  58 H58           -2.0093     1.8054    -1.1468 H       
  59 H59           -2.8636     1.7382     0.4142 H       
  60 H60           -0.9128     3.9012    -1.8166 H       
  61 H61           -0.9966     5.3066    -0.7264 H       
  62 H62            0.3633     4.1213     0.9484 H       
  63 H63            1.2198     4.1494    -0.6126 H       
  64 H64           -4.1890     3.6856    -0.1383 H       
  65 H65           -3.3807     5.1788    -0.6723 H       
  66 H66           -3.4009     3.7496    -1.7330 H       
  67 H67            2.1001   -10.3873    -1.2883 H       
  68 H68            0.2788   -10.1083    -1.3693 H       
  69 H69            0.6641    -7.6013    -1.3979 H       
  70 H70            2.4854    -7.8803    -1.3169 H       
  71 H71            2.3125    -6.7422     7.5889 H       
  72 H72            3.7694    -7.7551     7.4487 H       
  73 H73            2.9978    -7.0983     5.9853 H       
  74 H74            3.7763    -7.2201     9.7163 H       
  75 H75            2.9660    -5.4518    11.2266 H       
  76 H76           -0.1754    -7.8412    12.5102 H       
@<TRIPOS>BOND
   1    1    2 1
   2    1   32 1
   3    1   24 1
   4    1   45 1
   5    2    3 ar
   6    2    7 ar
   7    3    4 ar
   8    3   46 1
   9    4    5 ar
  10    4   47 1
  11    5    6 ar
  12    5    8 1
  13    6    7 ar
  14    6   48 1
  15    7   49 1
  16    8    9 1
  17    8   50 1
  18    9   10 ar
  19    9   14 ar
  20   10   11 ar
  21   11   12 ar
  22   11   15 1
  23   12   13 ar
  24   12   18 1
  25   13   14 ar
  26   13   51 1
  27   15   16 am
  28   15   19 1
  29   16   17 1
  30   16   20 2
  31   17   18 2
  32   17   21 1
  33   18   52 1
  34   19   22 1
  35   19   53 1
  36   19   54 1
  37   21   23 1
  38   21   25 2
  39   22   37 1
  40   22   38 1
  41   22   55 1
  42   23   27 2
  43   24   35 1
  44   25   26 1
  45   25   39 1
  46   26   27 1
  47   26   28 am
  48   27   56 1
  49   28   29 1
  50   28   30 2
  51   28   44 2
  52   29   31 ar
  53   29   40 ar
  54   31   43 ar
  55   31   57 1
  56   32   33 1
  57   32   58 1
  58   32   59 1
  59   33   34 1
  60   33   36 1
  61   34   35 1
  62   34   60 1
  63   34   61 1
  64   35   62 1
  65   35   63 1
  66   36   64 1
  67   36   65 1
  68   36   66 1
  69   37   38 1
  70   37   67 1
  71   37   68 1
  72   38   69 1
  73   38   70 1
  74   39   71 1
  75   39   72 1
  76   39   73 1
  77   40   41 ar
  78   40   74 1
  79   41   42 ar
  80   41   75 1
  81   42   43 ar
  82   43   76 1

#	End of record

