#	Name: ASD01209056
#	Creating user name:	WinNT
#	Creation time:	15. 06. 2019 19:10

#	Modifying user name:	WinNT
#	Modification time:	15. 06. 2019 19:10

#	Program:	/corina/corina34_cracker 3.40 0067  02.08.2006

@<TRIPOS>MOLECULE
ASD01209056
  48   49    0    0    0
SMALL
NO_CHARGES


@<TRIPOS>ATOM
   1 C1            -0.1340     1.3718    -0.3227 C.ar    
   2 C2            -0.1323    -0.0066    -0.2190 C.ar    
   3 C3             1.0561    -0.6830    -0.0164 C.ar    
   4 C4             2.2429     0.0190     0.0820 C.ar    
   5 C5             2.2413     1.3974    -0.0226 C.ar    
   6 C6             1.0527     2.0739    -0.2238 C.ar    
   7 S7            -1.6450    -0.9015    -0.3444 S.o2    
   8 O8            -1.4072    -2.0961     0.3874 O.2     
   9 O9            -2.6370     0.0272     0.0714 O.2     
  10 C10            3.5350     2.1627     0.0852 C.3     
  11 C11            3.4572     3.1197     1.2467 C.2     
  12 C12            4.7071     3.4900     2.0029 C.3     
  13 O13            2.3934     3.5898     1.5716 O.2     
  14 C14            5.3551     4.7124     1.3496 C.3     
  15 C15            4.3474     3.8176     3.4535 C.3     
  16 C16            3.7727     2.9471    -1.2068 C.3     
  17 C17            3.9709     1.9700    -2.3674 C.3     
  18 C18            4.0725     2.7419    -3.6947 C.3     
  19 C19            5.4621     2.4239    -4.2842 C.3     
  20 C20            5.8471     1.0690    -3.6399 C.3     
  21 C21            5.3024     1.2099    -2.1967 C.3     
  22 C22           -1.8123    -1.2618    -2.1144 C.3     
  23 H23           -1.0619     1.8999    -0.4854 H       
  24 H24            1.0574    -1.7599     0.0654 H       
  25 H25            3.1713    -0.5094     0.2410 H       
  26 H26            1.0515     3.1507    -0.3059 H       
  27 H27            4.3576     1.4653     0.2434 H       
  28 H28            5.4058     2.6536     1.9818 H       
  29 H29            4.6790     5.5643     1.4221 H       
  30 H30            6.2891     4.9453     1.8609 H       
  31 H31            5.5588     4.4984     0.3004 H       
  32 H32            3.8857     2.9467     3.9189 H       
  33 H33            5.2514     4.0854     4.0004 H       
  34 H34            3.6487     4.6540     3.4746 H       
  35 H35            2.9106     3.5824    -1.4099 H       
  36 H36            4.6629     3.5665    -1.0972 H       
  37 H37            3.1404     1.2653    -2.4079 H       
  38 H38            3.2917     2.4112    -4.3796 H       
  39 H39            3.9805     3.8126    -3.5120 H       
  40 H40            5.4036     2.3277    -5.3684 H       
  41 H41            6.1799     3.1959    -4.0069 H       
  42 H42            5.3600     0.2428    -4.1576 H       
  43 H43            6.9292     0.9380    -3.6333 H       
  44 H44            5.9944     1.7858    -1.5823 H       
  45 H45            5.1274     0.2278    -1.7575 H       
  46 H46           -0.9601    -1.8546    -2.4466 H       
  47 H47           -2.7324    -1.8203    -2.2860 H       
  48 H48           -1.8449    -0.3270    -2.6740 H       
@<TRIPOS>BOND
   1    1    2 ar
   2    1    6 ar
   3    1   23 1
   4    2    3 ar
   5    2    7 1
   6    3    4 ar
   7    3   24 1
   8    4    5 ar
   9    4   25 1
  10    5    6 ar
  11    5   10 1
  12    6   26 1
  13    7    8 2
  14    7    9 2
  15    7   22 1
  16   10   11 1
  17   10   16 1
  18   10   27 1
  19   11   12 1
  20   11   13 2
  21   12   14 1
  22   12   15 1
  23   12   28 1
  24   14   29 1
  25   14   30 1
  26   14   31 1
  27   15   32 1
  28   15   33 1
  29   15   34 1
  30   16   17 1
  31   16   35 1
  32   16   36 1
  33   17   18 1
  34   17   21 1
  35   17   37 1
  36   18   19 1
  37   18   38 1
  38   18   39 1
  39   19   20 1
  40   19   40 1
  41   19   41 1
  42   20   21 1
  43   20   42 1
  44   20   43 1
  45   21   44 1
  46   21   45 1
  47   22   46 1
  48   22   47 1
  49   22   48 1

#	End of record

