#	Name: ASD03490132
#	Creating user name:	WinNT
#	Creation time:	15. 06. 2019 20:42

#	Modifying user name:	WinNT
#	Modification time:	15. 06. 2019 20:42

#	Program:	/corina/corina34_cracker 3.40 0067  02.08.2006

@<TRIPOS>MOLECULE
ASD03490132
  48   48    0    0    0
SMALL
NO_CHARGES


@<TRIPOS>ATOM
   1 P1            -0.0198     1.6058     0.0109 P.3     
   2 C2            -2.4956    -3.4140    -0.2148 C.3     
   3 C3            -2.3758    -2.5228    -1.4527 C.3     
   4 C4            -1.1079    -1.6728    -1.3484 C.3     
   5 C5            -1.1821    -0.7980    -0.0954 C.3     
   6 C6            -1.3019    -1.6891     1.1425 C.3     
   7 C7            -2.5698    -2.5392     1.0382 C.3     
   8 O8             0.0336    -2.5284    -1.2651 O.3     
   9 O9            -2.3066    -3.3399    -2.6230 O.3     
  10 O10           -3.6798    -4.2079    -0.3122 O.3     
  11 O11           -0.1604    -2.5447     1.2258 O.3     
  12 O12            0.0021    -0.0041     0.0020 O.3     
  13 O13            1.4907     2.1630    -0.0006 O.3     
  14 O14           -0.7356     2.0960    -1.1881 O.2     
  15 O15           -0.7733     2.1250     1.3355 O.3     
  16 C16            1.8067     3.5531    -0.1006 C.3     
  17 C17            3.3259     3.7333    -0.0829 C.3     
  18 C18            3.6675     5.2065    -0.3149 C.3     
  19 O19            5.0850     5.3569    -0.4145 O.3     
  20 C20            5.5129     6.7027    -0.6328 C.3     
  21 C21            7.0397     6.7443    -0.7227 C.3     
  22 O22            3.8400     3.3189     1.1844 O.3     
  23 C23            5.1707     2.8008     1.1305 C.3     
  24 H24           -1.6249    -4.0666    -0.1513 H       
  25 H25           -3.2466    -1.8702    -1.5162 H       
  26 H26           -1.0226    -1.0379    -2.2303 H       
  27 H27           -2.0528    -0.1454    -0.1589 H       
  28 H28           -1.3547    -1.0659     2.0351 H       
  29 H29           -3.4405    -1.8866     0.9747 H       
  30 H30           -2.6551    -3.1741     1.9201 H       
  31 H31            0.1437    -3.1126    -2.0278 H       
  32 H32           -3.0791    -3.9068    -2.7532 H       
  33 H33           -3.8203    -4.7987     0.4403 H       
  34 H34           -0.1690    -3.1390     1.9886 H       
  35 H35           -0.3581     1.8407     2.1612 H       
  36 H36            1.4044     3.9510    -1.0322 H       
  37 H37            1.3676     4.0870     0.7422 H       
  38 H38            3.7728     3.1281    -0.8717 H       
  39 H39            3.2002     5.5467    -1.2390 H       
  40 H40            3.2968     5.8012     0.5200 H       
  41 H41            5.0838     7.0739    -1.5636 H       
  42 H42            5.1805     7.3285     0.1955 H       
  43 H43            7.3660     7.7709    -0.8892 H       
  44 H44            7.4687     6.3731     0.2080 H       
  45 H45            7.3720     6.1185    -1.5510 H       
  46 H46            5.4877     2.5088     2.1317 H       
  47 H47            5.1957     1.9314     0.4735 H       
  48 H48            5.8436     3.5668     0.7453 H       
@<TRIPOS>BOND
   1    1   12 1
   2    1   13 1
   3    1   14 2
   4    1   15 1
   5    2    3 1
   6    2    7 1
   7    2   10 1
   8    2   24 1
   9    3    4 1
  10    3    9 1
  11    3   25 1
  12    4    5 1
  13    4    8 1
  14    4   26 1
  15    5    6 1
  16    5   12 1
  17    5   27 1
  18    6    7 1
  19    6   11 1
  20    6   28 1
  21    7   29 1
  22    7   30 1
  23    8   31 1
  24    9   32 1
  25   10   33 1
  26   11   34 1
  27   13   16 1
  28   15   35 1
  29   16   17 1
  30   16   36 1
  31   16   37 1
  32   17   18 1
  33   17   22 1
  34   17   38 1
  35   18   19 1
  36   18   39 1
  37   18   40 1
  38   19   20 1
  39   20   21 1
  40   20   41 1
  41   20   42 1
  42   21   43 1
  43   21   44 1
  44   21   45 1
  45   22   23 1
  46   23   46 1
  47   23   47 1
  48   23   48 1

#	End of record

