#	Name: ASD09116036
#	Creating user name:	WinNT
#	Creation time:	15. 06. 2019 21:20

#	Modifying user name:	WinNT
#	Modification time:	15. 06. 2019 21:20

#	Program:	/corina/corina34_cracker 3.40 0067  02.08.2006

@<TRIPOS>MOLECULE
ASD09116036
  80   87    0    0    0
SMALL
NO_CHARGES


@<TRIPOS>ATOM
   1 C1            -0.3432     1.2819    -0.7380 C.ar    
   2 N2            -0.2817    -0.0512    -0.6324 N.ar    
   3 C3            -1.3564    -0.7672    -0.3482 C.ar    
   4 N4            -2.5520    -0.2134    -0.1524 N.ar    
   5 C5            -2.6823     1.0793    -0.2402 C.ar    
   6 C6            -1.5730     1.8840    -0.5324 C.ar    
   7 N7            -1.2338    -2.1527    -0.2502 N.pl3   
   8 N8            -2.2571    -3.0692     0.0408 N.2     
   9 C9            -1.7146    -4.2632     0.0352 C.2     
  10 N10           -0.4105    -4.1486    -0.2424 N.2     
  11 C11           -0.1056    -2.8814    -0.4227 C.2     
  12 N12           -2.3883    -5.4597     0.2798 N.pl3   
  13 C13           -1.7192    -6.6816     0.1377 C.ar    
  14 C14           -2.0850    -7.7685     0.9209 C.ar    
  15 C15           -0.6938    -6.8078    -0.7903 C.ar    
  16 C16           -0.0338    -8.0144    -0.9305 C.ar    
  17 C17           -0.3973    -9.1006    -0.1422 C.ar    
  18 C18           -1.4258    -8.9743     0.7811 C.ar    
  19 N19            1.1465    -2.3817    -0.7255 N.pl3   
  20 F20            0.9636    -8.1383    -1.8334 F       
  21 N21            0.2709   -10.3242    -0.2840 N.3     
  22 C22            0.9132   -10.7221     0.9752 C.3     
  23 C23            1.2443   -10.2682    -1.3820 C.3     
  24 C24            1.8478   -11.6573    -1.6019 C.3     
  25 C25            2.5309   -12.1215    -0.3126 C.3     
  26 C26            1.5068   -12.1247     0.8257 C.3     
  27 N27            3.0615   -13.4786    -0.4994 N.3     
  28 C28            4.0951   -13.5017    -1.5507 C.3     
  29 C29            5.3777   -14.0815    -0.9181 C.3     
  30 C30            4.8376   -14.8809     0.2969 C.3     
  31 C31            3.6532   -13.9933     0.7539 C.3     
  32 C32            0.8616     2.0841    -1.0569 C.ar    
  33 C33           -3.9558     1.8771    -0.0497 C.3     
  34 C34           -3.6575     2.9019     1.0648 C.3     
  35 C35           -2.3991     3.6939     0.7034 C.3     
  36 N36           -1.8617     3.2503    -0.5936 N.3     
  37 C37            2.1094     1.6965    -0.5704 C.ar    
  38 C38            3.2276     2.4474    -0.8706 C.ar    
  39 C39            3.1122     3.5830    -1.6522 C.ar    
  40 C40            1.8768     3.9724    -2.1378 C.ar    
  41 C41            0.7525     3.2260    -1.8493 C.ar    
  42 C42           -2.8768     3.4870    -1.6392 C.3     
  43 C43           -4.1510     2.6903    -1.3466 C.3     
  44 H44           -3.3203    -5.4455     0.5482 H       
  45 H45           -2.8850    -7.6709     1.6398 H       
  46 H46           -0.4123    -5.9637    -1.4025 H       
  47 H47           -1.7081    -9.8180     1.3934 H       
  48 H48            1.8992    -2.9857    -0.8230 H       
  49 H49            1.2728    -1.4268    -0.8405 H       
  50 H50            1.7073   -10.0156     1.2169 H       
  51 H51            0.1732   -10.7243     1.7755 H       
  52 H52            0.7447    -9.9408    -2.2938 H       
  53 H53            2.0368    -9.5638    -1.1293 H       
  54 H54            1.0576   -12.3593    -1.8683 H       
  55 H55            2.5816   -11.6120    -2.4066 H       
  56 H56            3.3464   -11.4412    -0.0671 H       
  57 H57            1.9971   -12.4134     1.7554 H       
  58 H58            0.7113   -12.8341     0.5976 H       
  59 H59            3.7700   -14.1347    -2.3764 H       
  60 H60            4.2829   -12.4894    -1.9084 H       
  61 H61            5.8879   -14.7428    -1.6185 H       
  62 H62            6.0408   -13.2814    -0.5891 H       
  63 H63            4.4907   -15.8681    -0.0083 H       
  64 H64            5.5921   -14.9586     1.0797 H       
  65 H65            4.0124   -13.1692     1.3704 H       
  66 H66            2.9227   -14.5881     1.3022 H       
  67 H67           -4.8105     1.2435     0.1875 H       
  68 H68           -4.5007     3.5852     1.1655 H       
  69 H69           -3.4991     2.3780     2.0074 H       
  70 H70           -2.6453     4.7543     0.6479 H       
  71 H71           -1.6440     3.5406     1.4744 H       
  72 H72            2.2006     0.8106     0.0405 H       
  73 H73            4.1947     2.1482    -0.4943 H       
  74 H74            3.9900     4.1679    -1.8840 H       
  75 H75            1.7927     4.8601    -2.7472 H       
  76 H76           -0.2115     3.5309    -2.2292 H       
  77 H77           -3.1192     4.5493    -1.6710 H       
  78 H78           -2.4757     3.1814    -2.6056 H       
  79 H79           -4.3546     2.0110    -2.1744 H       
  80 H80           -4.9899     3.3752    -1.2234 H       
@<TRIPOS>BOND
   1    1    2 ar
   2    1   32 1
   3    1    6 ar
   4    2    3 ar
   5    3    4 ar
   6    3    7 1
   7    4    5 ar
   8    5    6 ar
   9    5   33 1
  10    6   36 1
  11    7    8 1
  12    7   11 1
  13    8    9 2
  14    9   10 1
  15    9   12 1
  16   10   11 2
  17   11   19 1
  18   12   13 1
  19   12   44 1
  20   13   14 ar
  21   13   15 ar
  22   14   18 ar
  23   14   45 1
  24   15   16 ar
  25   15   46 1
  26   16   17 ar
  27   16   20 1
  28   17   18 ar
  29   17   21 1
  30   18   47 1
  31   19   48 1
  32   19   49 1
  33   21   22 1
  34   21   23 1
  35   22   26 1
  36   22   50 1
  37   22   51 1
  38   23   24 1
  39   23   52 1
  40   23   53 1
  41   24   25 1
  42   24   54 1
  43   24   55 1
  44   25   26 1
  45   25   27 1
  46   25   56 1
  47   26   57 1
  48   26   58 1
  49   27   28 1
  50   27   31 1
  51   28   29 1
  52   28   59 1
  53   28   60 1
  54   29   30 1
  55   29   61 1
  56   29   62 1
  57   30   31 1
  58   30   63 1
  59   30   64 1
  60   31   65 1
  61   31   66 1
  62   32   37 ar
  63   32   41 ar
  64   33   34 1
  65   33   43 1
  66   33   67 1
  67   34   35 1
  68   34   68 1
  69   34   69 1
  70   35   36 1
  71   35   70 1
  72   35   71 1
  73   36   42 1
  74   37   38 ar
  75   37   72 1
  76   38   39 ar
  77   38   73 1
  78   39   40 ar
  79   39   74 1
  80   40   41 ar
  81   40   75 1
  82   41   76 1
  83   42   43 1
  84   42   77 1
  85   42   78 1
  86   43   79 1
  87   43   80 1

#	End of record

