#	Name: ASD02198552
#	Creating user name:	WinNT
#	Creation time:	15. 06. 2019 20:19

#	Modifying user name:	WinNT
#	Modification time:	15. 06. 2019 20:19

#	Program:	/corina/corina34_cracker 3.40 0067  02.08.2006

@<TRIPOS>MOLECULE
ASD02198552
  53   56    0    0    0
SMALL
NO_CHARGES


@<TRIPOS>ATOM
   1 C1             0.0072     1.5097     0.1333 C.2     
   2 C2             0.0745     0.1697    -0.0949 C.2     
   3 N3            -1.0519    -0.5604    -0.2651 N.pl3   
   4 N4            -2.2299    -0.0570    -0.2244 N.2     
   5 C5            -2.4375     1.2259    -0.0110 C.2     
   6 C6            -1.2792     2.1066     0.1921 C.2     
   7 C7            -0.9243    -1.9338    -0.4977 C.ar    
   8 C8            -1.3778    -3.8656    -1.8547 C.ar    
   9 C9            -0.6667    -4.6449    -0.9549 C.ar    
  10 C10           -0.0920    -4.0786     0.1664 C.ar    
  11 C11           -0.2182    -2.7222     0.3962 C.ar    
  12 C12           -3.8108     1.7687     0.0289 C.2     
  13 N13           -4.3729     2.4810     1.0508 N.pl3   
  14 N14           -5.6847     2.7992     0.6779 N.2     
  15 C15           -5.9151     2.3066    -0.5129 C.2     
  16 C16           -4.7640     1.6574    -0.9594 C.2     
  17 C17           -3.7489     2.8298     2.2554 C.ar    
  18 C18           -2.9553     1.9050     2.9211 C.ar    
  19 O19           -1.4171     3.3045     0.3941 O.2     
  20 C20           -3.9181     4.1030     2.7834 C.ar    
  21 C21           -3.3016     4.4438     3.9713 C.ar    
  22 C22           -2.5165     3.5188     4.6348 C.ar    
  23 C23           -2.3415     2.2520     4.1087 C.ar    
  24 C24           -1.5165    -2.5080    -1.6318 C.ar    
  25 O25            1.1345     2.2509     0.3049 O.3     
  26 C26            2.3828     1.5591     0.2344 C.3     
  27 N27           -2.2330    -1.6686    -2.4832 N.3     
  28 C28           -2.4069    -2.2242    -3.8267 C.3     
  29 C29           -3.0191    -3.6250    -3.7035 C.3     
  30 C30           -1.9739    -4.5417    -3.0638 C.3     
  31 H31            1.0378    -0.3163    -0.1411 H       
  32 H32           -0.5653    -5.7058    -1.1299 H       
  33 H33            0.4592    -4.6952     0.8609 H       
  34 H34            0.2330    -2.2773     1.2707 H       
  35 H35           -6.8418     2.3923    -1.0609 H       
  36 H36           -4.6439     1.1524    -1.9064 H       
  37 H37           -2.8185     0.9154     2.5109 H       
  38 H38           -4.5309     4.8260     2.2655 H       
  39 H39           -3.4325     5.4340     4.3823 H       
  40 H40           -2.0355     3.7878     5.5636 H       
  41 H41           -1.7280     1.5317     4.6294 H       
  42 H42            2.4851     1.0931    -0.7457 H       
  43 H43            3.1988     2.2653     0.3878 H       
  44 H44            2.4168     0.7911     1.0071 H       
  45 H45           -3.1221    -1.4165    -2.0783 H       
  46 H46           -3.0733    -1.5833    -4.4040 H       
  47 H47           -1.4387    -2.2905    -4.3231 H       
  48 H48           -3.9084    -3.5846    -3.0746 H       
  49 H49           -3.2828    -4.0003    -4.6923 H       
  50 H50           -1.1859    -4.7532    -3.7865 H       
  51 H51           -2.4474    -5.4755    -2.7606 H       
  52 Cl52           8.1988    10.4340    10.5636 Cl      
  53 H53            8.1988    11.8040    10.5636 H       
@<TRIPOS>BOND
   1    1    2 2
   2    1   25 1
   3    1    6 1
   4    2    3 1
   5    2   31 1
   6    3    4 1
   7    3    7 1
   8    4    5 2
   9    5    6 1
  10    5   12 1
  11    6   19 2
  12    7   24 ar
  13    7   11 ar
  14    8    9 ar
  15    8   24 ar
  16    8   30 1
  17    9   10 ar
  18    9   32 1
  19   10   11 ar
  20   10   33 1
  21   11   34 1
  22   12   13 1
  23   12   16 2
  24   13   14 1
  25   13   17 1
  26   14   15 2
  27   15   16 1
  28   15   35 1
  29   16   36 1
  30   17   20 ar
  31   17   18 ar
  32   18   23 ar
  33   18   37 1
  34   20   21 ar
  35   20   38 1
  36   21   22 ar
  37   21   39 1
  38   22   23 ar
  39   22   40 1
  40   23   41 1
  41   24   27 1
  42   25   26 1
  43   26   42 1
  44   26   43 1
  45   26   44 1
  46   27   28 1
  47   27   45 1
  48   28   29 1
  49   28   46 1
  50   28   47 1
  51   29   30 1
  52   29   48 1
  53   29   49 1
  54   30   50 1
  55   30   51 1
  56   52   53 1

#	End of record

