#	Name: ASD01811335
#	Creating user name:	WinNT
#	Creation time:	15. 06. 2019 19:26

#	Modifying user name:	WinNT
#	Modification time:	15. 06. 2019 19:26

#	Program:	/corina/corina34_cracker 3.40 0067  02.08.2006

@<TRIPOS>MOLECULE
ASD01811335
  56   59    0    0    0
SMALL
NO_CHARGES


@<TRIPOS>ATOM
   1 N1             0.2374     1.8716    -1.5828 N.am    
   2 C2             0.6637     1.2412    -2.6952 C.2     
   3 O3             1.8513     1.1984    -2.9524 O.2     
   4 N4            -0.2265     0.6581    -3.5223 N.am    
   5 O5            -1.4143    -0.1071    -5.9784 O.3     
   6 C6            -0.7087    -1.1186    -5.2477 C.3     
   7 C7             0.2369    -0.0271    -4.7314 C.3     
   8 C8            -0.1916     0.6381    -6.0452 C.3     
   9 C9             1.1661     2.3861    -0.6705 C.ar    
  10 C10            0.8690     3.5378     0.0486 C.ar    
  11 C11            1.7827     4.0501     0.9502 C.ar    
  12 C12            2.9963     3.4214     1.1426 C.ar    
  13 C13            3.3040     2.2641     0.4256 C.ar    
  14 C14            2.3794     1.7440    -0.4803 C.ar    
  15 C15           -0.4536     4.2305    -0.1558 C.3     
  16 C16            4.6035     1.5888     0.6293 C.2     
  17 O17            4.6460     0.3821     0.7693 O.2     
  18 N18            5.7409     2.3112     0.6596 N.am    
  19 C19            7.0472     1.6468     0.7632 C.3     
  20 C20            7.9414     2.1362    -0.3803 C.3     
  21 C21            8.0097     3.6648    -0.3507 C.3     
  22 C22            6.6074     4.2437    -0.5524 C.3     
  23 C23            5.6984     3.7779     0.5835 C.3     
  24 F24            8.5142     4.0850     0.8846 F       
  25 C25            8.9159     4.1484    -1.4535 C.ar    
  26 C26            9.2088     5.4970    -1.5511 C.ar    
  27 C27           10.0414     5.9376    -2.5643 C.ar    
  28 C28           10.5581     4.9907    -3.4578 C.ar    
  29 C29           10.2139     3.6483    -3.2906 C.ar    
  30 N30            9.4210     3.2780    -2.3065 N.ar    
  31 C31           11.4242     5.3930    -4.5248 C.1     
  32 N32           12.1114     5.7121    -5.3713 N.1     
  33 H33           -0.7129     1.9724    -1.4164 H       
  34 H34           -1.1739     0.6922    -3.3171 H       
  35 H35           -1.3061    -1.5809    -4.4619 H       
  36 H36           -0.2162    -1.8507    -5.8877 H       
  37 H37            1.2864    -0.3186    -4.6914 H       
  38 H38            0.4360     0.3647    -6.8934 H       
  39 H39           -0.3358     1.7150    -5.9581 H       
  40 H40            1.5464     4.9455     1.5059 H       
  41 H41            3.7080     3.8252     1.8475 H       
  42 H42            2.6100     0.8463    -1.0346 H       
  43 H43           -1.1876     3.8249     0.5404 H       
  44 H44           -0.3354     5.2993     0.0226 H       
  45 H45           -0.7945     4.0684    -1.1784 H       
  46 H46            7.5083     1.8944     1.7193 H       
  47 H47            6.9152     0.5674     0.6875 H       
  48 H48            8.9437     1.7249    -0.2600 H       
  49 H49            7.5254     1.8090    -1.3331 H       
  50 H50            6.6602     5.3325    -0.5546 H       
  51 H51            6.2039     3.8967    -1.5036 H       
  52 H52            4.6767     4.1043     0.3893 H       
  53 H53            6.0473     4.2029     1.5246 H       
  54 H54            8.7915     6.1986    -0.8439 H       
  55 H55           10.2863     6.9848    -2.6640 H       
  56 H56           10.6045     2.9066    -3.9715 H       
@<TRIPOS>BOND
   1    1    2 am
   2    1    9 1
   3    1   33 1
   4    2    3 2
   5    2    4 am
   6    4    7 1
   7    4   34 1
   8    5    6 1
   9    5    8 1
  10    6    7 1
  11    6   35 1
  12    6   36 1
  13    7    8 1
  14    7   37 1
  15    8   38 1
  16    8   39 1
  17    9   10 ar
  18    9   14 ar
  19   10   11 ar
  20   10   15 1
  21   11   12 ar
  22   11   40 1
  23   12   13 ar
  24   12   41 1
  25   13   14 ar
  26   13   16 1
  27   14   42 1
  28   15   43 1
  29   15   44 1
  30   15   45 1
  31   16   17 2
  32   16   18 am
  33   18   19 1
  34   18   23 1
  35   19   20 1
  36   19   46 1
  37   19   47 1
  38   20   21 1
  39   20   48 1
  40   20   49 1
  41   21   22 1
  42   21   24 1
  43   21   25 1
  44   22   23 1
  45   22   50 1
  46   22   51 1
  47   23   52 1
  48   23   53 1
  49   25   26 ar
  50   25   30 ar
  51   26   27 ar
  52   26   54 1
  53   27   28 ar
  54   27   55 1
  55   28   29 ar
  56   28   31 1
  57   29   30 ar
  58   29   56 1
  59   31   32 3

#	End of record

