#	Name: ASD01840045
#	Creating user name:	WinNT
#	Creation time:	15. 06. 2019 19:37

#	Modifying user name:	WinNT
#	Modification time:	15. 06. 2019 19:37

#	Program:	/corina/corina34_cracker 3.40 0067  02.08.2006

@<TRIPOS>MOLECULE
ASD01840045
  33   34    0    0    0
SMALL
NO_CHARGES


@<TRIPOS>ATOM
   1 C1             0.6809     0.2488    -1.1823 C.ar    
   2 C2             0.0085    -0.0034     0.0116 C.ar    
   3 C3             0.5470     0.4817     1.2060 C.ar    
   4 C4             1.7319     1.1958     1.1499 C.ar    
   5 C5             2.3387     1.4039    -0.0749 C.ar    
   6 N6             1.8062     0.9333    -1.1863 N.ar    
   7 N7            -2.8103    -2.2816    -0.3918 N.pl3   
   8 N8            -1.5017    -1.8695    -0.6746 N.2     
   9 C9            -1.2597    -0.7745     0.0145 C.2     
  10 C10           -2.4166    -0.4641     0.7554 C.2     
  11 C11           -3.3468    -1.4055     0.4846 C.2     
  12 C12           -2.5863     0.7092     1.6858 C.3     
  13 C13           -2.8939     1.9666     0.8701 C.3     
  14 C14           -3.1855     3.1312     1.8185 C.3     
  15 C15           -3.4931     4.3885     1.0028 C.3     
  16 C16           -3.7847     5.5531     1.9513 C.3     
  17 H17            0.2782    -0.1242    -2.1124 H       
  18 H18            0.0513     0.3046     2.1490 H       
  19 H19            2.1772     1.5862     2.0530 H       
  20 H20            3.2629     1.9607    -0.1225 H       
  21 H21           -3.2552    -3.0589    -0.7642 H       
  22 H22           -4.3442    -1.4496     0.8965 H       
  23 H23           -3.4088     0.5119     2.3733 H       
  24 H24           -1.6673     0.8595     2.2523 H       
  25 H25           -2.0356     2.2132     0.2450 H       
  26 H26           -3.7636     1.7860     0.2383 H       
  27 H27           -4.0437     2.8845     2.4436 H       
  28 H28           -2.3158     3.3117     2.4503 H       
  29 H29           -2.6349     4.6351     0.3778 H       
  30 H30           -4.3628     4.2079     0.3710 H       
  31 H31           -4.6430     5.3065     2.5763 H       
  32 H32           -2.9151     5.7336     2.5831 H       
  33 H33           -4.0039     6.4488     1.3702 H       
@<TRIPOS>BOND
   1    1    2 ar
   2    1    6 ar
   3    1   17 1
   4    2    3 ar
   5    2    9 1
   6    3    4 ar
   7    3   18 1
   8    4    5 ar
   9    4   19 1
  10    5    6 ar
  11    5   20 1
  12    7    8 1
  13    7   11 1
  14    7   21 1
  15    8    9 2
  16    9   10 1
  17   10   11 2
  18   10   12 1
  19   11   22 1
  20   12   13 1
  21   12   23 1
  22   12   24 1
  23   13   14 1
  24   13   25 1
  25   13   26 1
  26   14   15 1
  27   14   27 1
  28   14   28 1
  29   15   16 1
  30   15   29 1
  31   15   30 1
  32   16   31 1
  33   16   32 1
  34   16   33 1

#	End of record

