#	Name: ASD04591029
#	Creating user name:	WinNT
#	Creation time:	15. 06. 2019 20:51

#	Modifying user name:	WinNT
#	Modification time:	15. 06. 2019 20:51

#	Program:	/corina/corina34_cracker 3.40 0067  02.08.2006

@<TRIPOS>MOLECULE
ASD04591029
  55   60    0    0    0
SMALL
NO_CHARGES


@<TRIPOS>ATOM
   1 N1            -0.0075     1.2393     0.5663 N.ar    
   2 C2             0.0047    -0.0302     0.1799 C.ar    
   3 N3             1.1295    -0.6891    -0.0485 N.ar    
   4 C4             2.3071    -0.0911     0.1040 C.ar    
   5 C5             2.3280     1.2574     0.5136 C.ar    
   6 C6             1.1199     1.9087     0.7418 C.ar    
   7 N7             3.6047    -0.5159    -0.0575 N.pl3   
   8 C8             4.4886     0.5111     0.2327 C.ar    
   9 C9             3.7420     1.6461     0.5966 C.ar    
  10 C10            5.8741     0.6042     0.2258 C.ar    
  11 N11            6.4717     1.7317     0.5536 N.ar    
  12 C12            5.7999     2.8155     0.9000 C.ar    
  13 C13            4.4215     2.8157     0.9346 C.ar    
  14 C14            3.9800    -1.8040    -0.4582 C.ar    
  15 N15           -1.2012    -0.6885     0.0103 N.pl3   
  16 C16           -2.4064     0.0152     0.1318 C.ar    
  17 C17           -2.4780     1.3434    -0.2668 C.ar    
  18 C18           -3.6659     2.0370    -0.1471 C.ar    
  19 C19           -4.7891     1.4061     0.3716 C.ar    
  20 C20           -4.7175     0.0776     0.7697 C.ar    
  21 C21           -3.5308    -0.6173     0.6455 C.ar    
  22 N22           -5.9930     2.1092     0.4934 N.3     
  23 C23           -7.0459     1.2561     1.0619 C.3     
  24 C24           -8.3204     2.0818     1.2524 C.3     
  25 N25           -8.7388     2.6379    -0.0419 N.3     
  26 C26           -7.6859     3.4910    -0.6104 C.3     
  27 C27           -6.4114     2.6652    -0.8010 C.3     
  28 C28            3.6516    -2.2611    -1.7277 C.ar    
  29 C29            4.0236    -3.5320    -2.1201 C.ar    
  30 C30            4.7219    -4.3492    -1.2501 C.ar    
  31 C31            5.0500    -3.8971     0.0149 C.ar    
  32 C32            4.6863    -2.6250     0.4111 C.ar    
  33 H33            1.1029     2.9416     1.0568 H       
  34 H34            6.4669    -0.2552    -0.0504 H       
  35 H35            6.3386     3.7147     1.1602 H       
  36 H36            3.8784     3.7051     1.2184 H       
  37 H37           -1.2116    -1.6369    -0.1927 H       
  38 H38           -1.6046     1.8341    -0.6701 H       
  39 H39           -3.7215     3.0703    -0.4564 H       
  40 H40           -5.5909    -0.4130     1.1734 H       
  41 H41           -3.4751    -1.6505     0.9551 H       
  42 H42           -7.2478     0.4269     0.3838 H       
  43 H43           -6.7176     0.8665     2.0255 H       
  44 H44           -9.1114     1.4440     1.6470 H       
  45 H45           -8.1257     2.8950     1.9517 H       
  46 H46           -8.9958     1.9038    -0.6847 H       
  47 H47           -8.0143     3.8805    -1.5740 H       
  48 H48           -7.4840     4.3201     0.0677 H       
  49 H49           -5.6205     3.3031    -1.1955 H       
  50 H50           -6.6061     1.8521    -1.5003 H       
  51 H51            3.1056    -1.6236    -2.4074 H       
  52 H52            3.7685    -3.8881    -3.1072 H       
  53 H53            5.0113    -5.3427    -1.5591 H       
  54 H54            5.5951    -4.5378     0.6922 H       
  55 H55            4.9428    -2.2724     1.3992 H       
@<TRIPOS>BOND
   1    1    2 ar
   2    1    6 ar
   3    2    3 ar
   4    2   15 1
   5    3    4 ar
   6    4    5 ar
   7    4    7 1
   8    5    6 ar
   9    5    9 1
  10    6   33 1
  11    7    8 1
  12    7   14 1
  13    8    9 ar
  14    8   10 ar
  15    9   13 ar
  16   10   11 ar
  17   10   34 1
  18   11   12 ar
  19   12   13 ar
  20   12   35 1
  21   13   36 1
  22   14   28 ar
  23   14   32 ar
  24   15   16 1
  25   15   37 1
  26   16   17 ar
  27   16   21 ar
  28   17   18 ar
  29   17   38 1
  30   18   19 ar
  31   18   39 1
  32   19   20 ar
  33   19   22 1
  34   20   21 ar
  35   20   40 1
  36   21   41 1
  37   22   23 1
  38   22   27 1
  39   23   24 1
  40   23   42 1
  41   23   43 1
  42   24   25 1
  43   24   44 1
  44   24   45 1
  45   25   26 1
  46   25   46 1
  47   26   27 1
  48   26   47 1
  49   26   48 1
  50   27   49 1
  51   27   50 1
  52   28   29 ar
  53   28   51 1
  54   29   30 ar
  55   29   52 1
  56   30   31 ar
  57   30   53 1
  58   31   32 ar
  59   31   54 1
  60   32   55 1

#	End of record

