#	Name: ASD01940254
#	Creating user name:	WinNT
#	Creation time:	15. 06. 2019 20:12

#	Modifying user name:	WinNT
#	Modification time:	15. 06. 2019 20:12

#	Program:	/corina/corina34_cracker 3.40 0067  02.08.2006

@<TRIPOS>MOLECULE
ASD01940254
  52   54    0    0    0
SMALL
NO_CHARGES


@<TRIPOS>ATOM
   1 C1             0.7324     0.9050     0.0540 C.ar    
   2 C2             1.5857     1.0602     1.1353 C.ar    
   3 C3             1.1926     1.8144     2.2284 C.ar    
   4 C4            -0.0545     2.4167     2.2459 C.ar    
   5 C5            -0.9150     2.2654     1.1654 C.ar    
   6 C6            -0.5188     1.5122     0.0635 C.ar    
   7 N7            -1.3851     1.3565    -1.0309 N.am    
   8 S8            -0.8332     1.6265    -2.5687 S.o2    
   9 O9            -1.6286     2.7046    -3.0423 O.2     
  10 O10            0.5729     1.7649    -2.4172 O.2     
  11 F11            2.0274     1.9625     3.2803 F       
  12 F12           -0.4346     3.1513     3.3141 F       
  13 N13           -2.1777     2.8739     1.1826 N.pl3   
  14 C14           -3.1556     2.4298     2.0778 C.ar    
  15 C15           -4.2750     3.2156     2.3341 C.ar    
  16 C16           -3.0150     1.2013     2.7087 C.ar    
  17 C17           -3.9834     0.7649     3.5926 C.ar    
  18 C18           -5.0923     1.5494     3.8493 C.ar    
  19 C19           -5.2396     2.7723     3.2195 C.ar    
  20 F20           -4.4187     4.4098     1.7191 F       
  21 C21           -6.1462     1.0687     4.8132 C.3     
  22 C22           -1.2295     0.1007    -3.4663 C.3     
  23 C23           -2.6048     0.2232    -4.1256 C.3     
  24 C24           -0.1563    -0.1770    -4.5334 C.3     
  25 C25           -1.2123    -1.1010    -2.4992 C.3     
  26 O26            1.1209     0.1636    -1.0186 O.3     
  27 C27            2.4280    -0.4120    -0.9702 C.3     
  28 C28           -0.6113    -2.2556    -3.3387 C.3     
  29 C29            0.4770    -1.5380    -4.1778 C.3     
  30 H30            2.5588     0.5918     1.1256 H       
  31 H31           -2.3066     1.0907    -0.8860 H       
  32 H32           -2.3730     3.6032     0.5735 H       
  33 H33           -2.1496     0.5869     2.5087 H       
  34 H34           -3.8739    -0.1909     4.0834 H       
  35 H35           -6.1070     3.3828     3.4227 H       
  36 H36           -5.8997     1.4071     5.8196 H       
  37 H37           -7.1161     1.4716     4.5218 H       
  38 H38           -6.1851    -0.0205     4.7956 H       
  39 H39           -2.5956     1.0515    -4.8340 H       
  40 H40           -2.8392    -0.7022    -4.6516 H       
  41 H41           -3.3592     0.4075    -3.3608 H       
  42 H42           -0.6153    -0.2254    -5.5209 H       
  43 H43            0.6027     0.6050    -4.5120 H       
  44 H44           -0.5807    -0.8876    -1.6368 H       
  45 H45           -2.2247    -1.3483    -2.1799 H       
  46 H46            2.4006    -1.3263    -0.3772 H       
  47 H47            2.7601    -0.6449    -1.9819 H       
  48 H48            3.1202     0.2960    -0.5145 H       
  49 H49           -0.1657    -3.0118    -2.6924 H       
  50 H50           -1.3688    -2.6971    -3.9863 H       
  51 H51            0.6967    -2.1046    -5.0826 H       
  52 H52            1.3817    -1.3950    -3.5869 H       
@<TRIPOS>BOND
   1    1    2 ar
   2    1   26 1
   3    1    6 ar
   4    2    3 ar
   5    2   30 1
   6    3    4 ar
   7    3   11 1
   8    4    5 ar
   9    4   12 1
  10    5    6 ar
  11    5   13 1
  12    6    7 1
  13    7    8 am
  14    7   31 1
  15    8    9 2
  16    8   10 2
  17    8   22 1
  18   13   14 1
  19   13   32 1
  20   14   15 ar
  21   14   16 ar
  22   15   20 1
  23   15   19 ar
  24   16   17 ar
  25   16   33 1
  26   17   18 ar
  27   17   34 1
  28   18   19 ar
  29   18   21 1
  30   19   35 1
  31   21   36 1
  32   21   37 1
  33   21   38 1
  34   22   23 1
  35   22   24 1
  36   22   25 1
  37   23   39 1
  38   23   40 1
  39   23   41 1
  40   24   29 1
  41   24   42 1
  42   24   43 1
  43   25   28 1
  44   25   44 1
  45   25   45 1
  46   26   27 1
  47   27   46 1
  48   27   47 1
  49   27   48 1
  50   28   29 1
  51   28   49 1
  52   28   50 1
  53   29   51 1
  54   29   52 1

#	End of record

