#	Name: ASD03090352
#	Creating user name:	WinNT
#	Creation time:	15. 06. 2019 20:28

#	Modifying user name:	WinNT
#	Modification time:	15. 06. 2019 20:28

#	Program:	/corina/corina34_cracker 3.40 0067  02.08.2006

@<TRIPOS>MOLECULE
ASD03090352
  56   60    0    0    0
SMALL
NO_CHARGES


@<TRIPOS>ATOM
   1 N1            -0.0105     1.1335     1.2699 N.ar    
   2 C2             0.0519    -0.1843     1.2627 C.ar    
   3 C3             1.2412    -0.8358     1.0087 C.ar    
   4 C4             2.3897    -0.0775     0.7562 C.ar    
   5 C5             2.2771     1.3167     0.7734 C.ar    
   6 C6             1.0477     1.8855     1.0370 C.ar    
   7 C7             3.6878    -0.7324     0.4791 C.2     
   8 N8             5.7109    -3.4478    -0.4624 N.pl3   
   9 C9             4.8734    -4.5013    -0.8468 C.ar    
  10 C10            3.6680    -4.2339    -1.4816 C.ar    
  11 C11            2.8398    -5.2769    -1.8616 C.ar    
  12 C12            3.2184    -6.5926    -1.6058 C.ar    
  13 C13            4.4218    -6.8553    -0.9715 C.ar    
  14 C14            5.2507    -5.8146    -0.5984 C.ar    
  15 N15            3.8594    -1.9807     0.0933 N.2     
  16 C16            5.1605    -2.2287    -0.0625 C.2     
  17 N17            5.8407    -1.1415     0.2216 N.2     
  18 N18            4.9058    -0.1538     0.5715 N.pl3   
  19 C19            5.1940     1.2274     0.9657 C.3     
  20 C20            5.2405     2.1008    -0.2616 C.2     
  21 N21            5.4921     3.4194    -0.1412 N.am    
  22 O22            1.6267    -5.2857    -2.4876 O.3     
  23 C23            1.4568    -6.6284    -2.9787 C.3     
  24 O24            2.2414    -7.4259    -2.0723 O.3     
  25 F25            0.1104    -7.0047    -2.9252 F       
  26 F26            1.9484    -6.7404    -4.2837 F       
  27 O27            5.0516     1.6171    -1.3576 O.2     
  28 C28           -1.1926    -0.9889     1.5363 C.3     
  29 C29            5.5373     4.2684    -1.3342 C.3     
  30 C30            4.1186     4.7619    -1.6857 C.3     
  31 C31            4.3341     6.2113    -2.1874 C.3     
  32 C32            5.4487     6.7359    -1.2485 C.3     
  33 C33            6.3830     5.5235    -1.0563 C.3     
  34 O34            6.8769     5.4939     0.2843 O.3     
  35 H35            1.2851    -1.9149     1.0051 H       
  36 H36            3.1395     1.9386     0.5839 H       
  37 H37            0.9507     2.9610     1.0524 H       
  38 H38            6.6738    -3.5647    -0.4739 H       
  39 H39            3.3762    -3.2130    -1.6787 H       
  40 H40            4.7149    -7.8756    -0.7730 H       
  41 H41            6.1882    -6.0222    -0.1040 H       
  42 H42            4.4124     1.5845     1.6363 H       
  43 H43            6.1563     1.2664     1.4760 H       
  44 H44            5.6432     3.8062     0.7354 H       
  45 H45           -1.7103    -1.1878     0.5979 H       
  46 H46           -0.9187    -1.9330     2.0073 H       
  47 H47           -1.8490    -0.4280     2.2015 H       
  48 H48            5.9575     3.7122    -2.1722 H       
  49 H49            3.6848     4.1460    -2.4735 H       
  50 H50            3.4822     4.7551    -0.8008 H       
  51 H51            4.6691     6.2153    -3.2247 H       
  52 H52            3.4235     6.7993    -2.0723 H       
  53 H53            5.9855     7.5606    -1.7173 H       
  54 H54            5.0271     7.0479    -0.2930 H       
  55 H55            7.2139     5.5772    -1.7597 H       
  56 H56            7.4008     6.2694     0.5277 H       
@<TRIPOS>BOND
   1    1    2 ar
   2    1    6 ar
   3    2    3 ar
   4    2   28 1
   5    3    4 ar
   6    3   35 1
   7    4    5 ar
   8    4    7 1
   9    5    6 ar
  10    5   36 1
  11    6   37 1
  12    7   15 2
  13    7   18 1
  14    8    9 1
  15    8   16 1
  16    8   38 1
  17    9   10 ar
  18    9   14 ar
  19   10   11 ar
  20   10   39 1
  21   11   12 ar
  22   11   22 1
  23   12   13 ar
  24   12   24 1
  25   13   14 ar
  26   13   40 1
  27   14   41 1
  28   15   16 1
  29   16   17 2
  30   17   18 1
  31   18   19 1
  32   19   20 1
  33   19   42 1
  34   19   43 1
  35   20   21 am
  36   20   27 2
  37   21   29 1
  38   21   44 1
  39   22   23 1
  40   23   24 1
  41   23   25 1
  42   23   26 1
  43   28   45 1
  44   28   46 1
  45   28   47 1
  46   29   30 1
  47   29   33 1
  48   29   48 1
  49   30   31 1
  50   30   49 1
  51   30   50 1
  52   31   32 1
  53   31   51 1
  54   31   52 1
  55   32   33 1
  56   32   53 1
  57   32   54 1
  58   33   34 1
  59   33   55 1
  60   34   56 1

#	End of record

