#	Name: ASD01813658
#	Creating user name:	WinNT
#	Creation time:	15. 06. 2019 19:30

#	Modifying user name:	WinNT
#	Modification time:	15. 06. 2019 19:30

#	Program:	/corina/corina34_cracker 3.40 0067  02.08.2006

@<TRIPOS>MOLECULE
ASD01813658
  46   49    0    0    0
SMALL
NO_CHARGES


@<TRIPOS>ATOM
   1 C1             0.0979     1.4754     0.3564 C.ar    
   2 C2             0.0799     0.0881     0.3485 C.ar    
   3 C3             1.2501    -0.6307     0.2178 C.ar    
   4 C4             2.4672     0.0383     0.0918 C.ar    
   5 C5             2.4806     1.4430     0.1002 C.ar    
   6 C6             1.2891     2.1559     0.2332 C.ar    
   7 N7             3.6443    -0.6677    -0.0386 N.pl3   
   8 C8             4.8373    -0.0728    -0.1611 C.2     
   9 C9             4.9773     1.3006    -0.1659 C.2     
  10 C10            3.7744     2.1383    -0.0339 C.2     
  11 O11            3.8447     3.3548    -0.0328 O.2     
  12 C12            6.3051     1.9159    -0.3016 C.2     
  13 O13            6.4289     3.2583    -0.3050 O.3     
  14 O14            7.2918     1.2143    -0.4108 O.2     
  15 C15            3.5871    -2.1316    -0.0427 C.3     
  16 C16            3.4445    -2.6248    -1.4595 C.ar    
  17 C17            4.5597    -2.7692    -2.2634 C.ar    
  18 N18            4.4484    -3.1999    -3.5039 N.ar    
  19 C19            3.2702    -3.5106    -4.0291 C.ar    
  20 C20            2.1042    -3.3883    -3.2750 C.ar    
  21 C21            2.1928    -2.9438    -1.9677 C.ar    
  22 F22            1.2170    -1.9813     0.2123 F       
  23 C23            3.1932    -3.9912    -5.4293 C.ar    
  24 C24            1.9630    -4.3229    -5.9992 C.ar    
  25 C25            1.9438    -4.7674    -7.3114 C.ar    
  26 C26            3.1309    -4.8686    -8.0112 C.ar    
  27 N27            4.2822    -4.5491    -7.4508 N.ar    
  28 C28            4.3528    -4.1148    -6.2046 C.ar    
  29 O29            5.5575    -3.7975    -5.6695 O.3     
  30 C30            6.7027    -3.9573    -6.5091 C.3     
  31 H31           -0.8269     2.0243     0.4550 H       
  32 H32           -0.8602    -0.4345     0.4462 H       
  33 H33            1.3004     3.2358     0.2392 H       
  34 H34            5.7197    -0.6878    -0.2590 H       
  35 H35            7.3223     3.6166    -0.3967 H       
  36 H36            4.5033    -2.5322     0.3910 H       
  37 H37            2.7314    -2.4635     0.5454 H       
  38 H38            5.5353    -2.5254    -1.8697 H       
  39 H39            1.1457    -3.6409    -3.7038 H       
  40 H40            1.3068    -2.8390    -1.3591 H       
  41 H41            1.0486    -4.2356    -5.4312 H       
  42 H42            1.0091    -5.0328    -7.7830 H       
  43 H43            3.1164    -5.2154    -9.0339 H       
  44 H44            6.7846    -4.9995    -6.8175 H       
  45 H45            6.5980    -3.3247    -7.3906 H       
  46 H46            7.5990    -3.6694    -5.9597 H       
@<TRIPOS>BOND
   1    1    2 ar
   2    1    6 ar
   3    1   31 1
   4    2    3 ar
   5    2   32 1
   6    3    4 ar
   7    3   22 1
   8    4    5 ar
   9    4    7 1
  10    5    6 ar
  11    5   10 1
  12    6   33 1
  13    7    8 1
  14    7   15 1
  15    8    9 2
  16    8   34 1
  17    9   10 1
  18    9   12 1
  19   10   11 2
  20   12   13 1
  21   12   14 2
  22   13   35 1
  23   15   16 1
  24   15   36 1
  25   15   37 1
  26   16   17 ar
  27   16   21 ar
  28   17   18 ar
  29   17   38 1
  30   18   19 ar
  31   19   20 ar
  32   19   23 1
  33   20   21 ar
  34   20   39 1
  35   21   40 1
  36   23   24 ar
  37   23   28 ar
  38   24   25 ar
  39   24   41 1
  40   25   26 ar
  41   25   42 1
  42   26   27 ar
  43   26   43 1
  44   27   28 ar
  45   28   29 1
  46   29   30 1
  47   30   44 1
  48   30   45 1
  49   30   46 1

#	End of record

