#	Name: ASD03540203
#	Creating user name:	WinNT
#	Creation time:	15. 06. 2019 20:42

#	Modifying user name:	WinNT
#	Modification time:	15. 06. 2019 20:42

#	Program:	/corina/corina34_cracker 3.40 0067  02.08.2006

@<TRIPOS>MOLECULE
ASD03540203
  50   53    0    0    0
SMALL
NO_CHARGES


@<TRIPOS>ATOM
   1 C1            -0.0161     1.3365     0.0094 C.2     
   2 N2             0.0021    -0.0041     0.0020 N.am    
   3 C3             1.1931    -0.7075    -0.0132 C.2     
   4 C4             2.3928    -0.0051    -0.0209 C.2     
   5 C5             2.3194     1.4734    -0.0115 C.2     
   6 N6             1.1110     2.0661     0.0025 N.am    
   7 C7             3.5129    -0.8381    -0.0361 C.2     
   8 C8             3.2256    -2.1516    -0.0404 C.2     
   9 S9             1.4874    -2.3902    -0.0250 S.3     
  10 C10            4.2183    -3.2259    -0.0565 C.2     
  11 O11            5.4048    -2.9577    -0.0671 O.2     
  12 O12            3.8179    -4.5143    -0.0595 O.3     
  13 C13            1.0243     3.5285     0.0113 C.3     
  14 C14            1.0079     4.0298     1.4567 C.3     
  15 C15            0.9188     5.5341     1.4657 C.ar    
  16 C16           -0.3172     6.1532     1.4809 C.ar    
  17 C17           -0.3990     7.5331     1.4891 C.ar    
  18 C18            0.7551     8.2939     1.4826 C.ar    
  19 C19            1.9910     7.6749     1.4683 C.ar    
  20 C20            2.0729     6.2950     1.4645 C.ar    
  21 O21            3.3358     2.1426    -0.0175 O.2     
  22 O22           -1.0880     1.9101     0.0175 O.2     
  23 C23           -1.2652    -0.7390     0.0107 C.3     
  24 C24            4.8413    -5.5116    -0.0754 C.3     
  25 C25            4.2094    -6.8798    -0.0765 C.ar    
  26 C26            3.9074    -7.5007    -1.2740 C.ar    
  27 C27            3.3277    -8.7556    -1.2750 C.ar    
  28 C28            3.0505    -9.3898    -0.0785 C.ar    
  29 C29            3.3533    -8.7693     1.1191 C.ar    
  30 C30            3.9370    -7.5162     1.1200 C.ar    
  31 H31            4.5244    -0.4597    -0.0438 H       
  32 H32            1.8863     3.9467    -0.5086 H       
  33 H33            0.1095     3.8412    -0.4921 H       
  34 H34            0.1460     3.6116     1.9766 H       
  35 H35            1.9227     3.7170     1.9601 H       
  36 H36           -1.2188     5.5587     1.4860 H       
  37 H37           -1.3646     8.0167     1.5002 H       
  38 H38            0.6912     9.3720     1.4882 H       
  39 H39            2.8927     8.2693     1.4629 H       
  40 H40            3.0385     5.8113     1.4571 H       
  41 H41           -2.0950    -0.0322     0.0228 H       
  42 H42           -1.3307    -1.3609    -0.8820 H       
  43 H43           -1.3130    -1.3705     0.8978 H       
  44 H44            5.4510    -5.3923    -0.9710 H       
  45 H45            5.4691    -5.4021     0.8089 H       
  46 H46            4.1240    -7.0051    -2.2089 H       
  47 H47            3.0911    -9.2404    -2.2107 H       
  48 H48            2.5970   -10.3700    -0.0792 H       
  49 H49            3.1364    -9.2647     2.0539 H       
  50 H50            4.1770    -7.0330     2.0556 H       
@<TRIPOS>BOND
   1    1    2 am
   2    1    6 am
   3    1   22 2
   4    2    3 1
   5    2   23 1
   6    3    4 2
   7    3    9 1
   8    4    5 1
   9    4    7 1
  10    5    6 am
  11    5   21 2
  12    6   13 1
  13    7    8 2
  14    7   31 1
  15    8    9 1
  16    8   10 1
  17   10   11 2
  18   10   12 1
  19   12   24 1
  20   13   14 1
  21   13   32 1
  22   13   33 1
  23   14   15 1
  24   14   34 1
  25   14   35 1
  26   15   16 ar
  27   15   20 ar
  28   16   17 ar
  29   16   36 1
  30   17   18 ar
  31   17   37 1
  32   18   19 ar
  33   18   38 1
  34   19   20 ar
  35   19   39 1
  36   20   40 1
  37   23   41 1
  38   23   42 1
  39   23   43 1
  40   24   25 1
  41   24   44 1
  42   24   45 1
  43   25   26 ar
  44   25   30 ar
  45   26   27 ar
  46   26   46 1
  47   27   28 ar
  48   27   47 1
  49   28   29 ar
  50   28   48 1
  51   29   30 ar
  52   29   49 1
  53   30   50 1

#	End of record

