#	Name: ASD07000009
#	Creating user name:	WinNT
#	Creation time:	15. 06. 2019 21:08

#	Modifying user name:	WinNT
#	Modification time:	15. 06. 2019 21:08

#	Program:	/corina/corina34_cracker 3.40 0067  02.08.2006

@<TRIPOS>MOLECULE
ASD07000009
  35   36    0    0    0
SMALL
NO_CHARGES


@<TRIPOS>ATOM
   1 S1            -0.0220     1.7686     0.0118 S.3     
   2 C2             0.0021    -0.0041     0.0020 C.2     
   3 O3            -0.9696    -0.7347     0.0074 O.2     
   4 N4             1.2791    -0.3919    -0.0123 N.am    
   5 C5             2.2642     0.4903    -0.0169 C.2     
   6 O6             3.4349     0.1754    -0.0304 O.2     
   7 C7             1.7956     1.9289    -0.0047 C.3     
   8 C8             2.2628     2.6608    -1.2645 C.3     
   9 C9             1.7825     4.0886    -1.2231 C.ar    
  10 C10            2.5706     5.0653    -0.6429 C.ar    
  11 C11            2.1326     6.3749    -0.6037 C.ar    
  12 C12            0.9009     6.7097    -1.1472 C.ar    
  13 C13            0.1120     5.7279    -1.7289 C.ar    
  14 C14            0.5571     4.4207    -1.7706 C.ar    
  15 O15            0.4676     7.9972    -1.1095 O.3     
  16 C16           -0.8104     8.2689    -1.6883 C.3     
  17 C17           -1.1253     9.7599    -1.5523 C.3     
  18 C18           -0.4378    11.9772    -2.2404 C.3     
  19 N19           -0.1655    10.5376    -2.3472 N.3     
  20 H20            1.4886    -1.3390    -0.0190 H       
  21 H21            2.1456     2.4407     0.8918 H       
  22 H22            3.3517     2.6449    -1.3112 H       
  23 H23            1.8541     2.1653    -2.1452 H       
  24 H24            3.5292     4.8041    -0.2195 H       
  25 H25            2.7484     7.1374    -0.1500 H       
  26 H26           -0.8472     5.9860    -2.1527 H       
  27 H27           -0.0547     3.6567    -2.2272 H       
  28 H28           -0.7970     7.9951    -2.7433 H       
  29 H29           -1.5741     7.6876    -1.1717 H       
  30 H30           -2.1358     9.9522    -1.9129 H       
  31 H31           -1.0514    10.0528    -0.5050 H       
  32 H32            0.2873    12.5294    -2.8383 H       
  33 H33           -1.4435    12.1849    -2.6057 H       
  34 H34           -0.3591    12.2855    -1.1978 H       
  35 H35            0.7832    10.3279    -2.0751 H       
@<TRIPOS>BOND
   1    1    2 1
   2    1    7 1
   3    2    3 2
   4    2    4 am
   5    4    5 am
   6    4   20 1
   7    5    6 2
   8    5    7 1
   9    7    8 1
  10    7   21 1
  11    8    9 1
  12    8   22 1
  13    8   23 1
  14    9   10 ar
  15    9   14 ar
  16   10   11 ar
  17   10   24 1
  18   11   12 ar
  19   11   25 1
  20   12   13 ar
  21   12   15 1
  22   13   14 ar
  23   13   26 1
  24   14   27 1
  25   15   16 1
  26   16   17 1
  27   16   28 1
  28   16   29 1
  29   17   19 1
  30   17   30 1
  31   17   31 1
  32   18   19 1
  33   18   32 1
  34   18   33 1
  35   18   34 1
  36   19   35 1

#	End of record

