#	Name: ASD01920032
#	Creating user name:	WinNT
#	Creation time:	15. 06. 2019 20:11

#	Modifying user name:	WinNT
#	Modification time:	15. 06. 2019 20:11

#	Program:	/corina/corina34_cracker 3.40 0067  02.08.2006

@<TRIPOS>MOLECULE
ASD01920032
  42   45    0    0    0
SMALL
NO_CHARGES


@<TRIPOS>ATOM
   1 C1            -0.0126     1.3159    -0.2147 C.ar    
   2 N2             0.0053    -0.0027    -0.2229 N.ar    
   3 C3             1.1321    -0.6868    -0.1860 C.ar    
   4 C4             2.3515    -0.0415    -0.1365 C.ar    
   5 C5             2.3792     1.3556    -0.1261 C.ar    
   6 C6             1.1616     2.0403    -0.1667 C.ar    
   7 C7             3.6664     2.0921    -0.0730 C.ar    
   8 N8             4.7830     1.3927    -0.0357 N.ar    
   9 C9             5.9722     2.0013     0.0129 C.ar    
  10 C10            6.0107     3.4191     0.0238 C.ar    
  11 C11            4.7431     4.1421    -0.0185 C.ar    
  12 N12            3.6300     3.4226    -0.0709 N.ar    
  13 N13            4.7047     5.5201    -0.0107 N.3     
  14 C14            4.0995     6.0367    -1.2450 C.3     
  15 C15            4.2053     7.5632    -1.2664 C.3     
  16 C16            3.4846     8.1372    -0.0435 C.3     
  17 C17            4.1022     7.5463     1.2270 C.3     
  18 C18            3.9994     6.0202     1.1762 C.3     
  19 C19            3.6388     9.6593    -0.0268 C.3     
  20 C20            7.1870     1.3004     0.0533 C.ar    
  21 N21            8.3207     1.9619     0.0998 N.ar    
  22 C22            8.3810     3.2846     0.1110 C.ar    
  23 C23            7.2538     4.0564     0.0805 C.ar    
  24 H24           -0.9584     1.8361    -0.2506 H       
  25 H25            1.1005    -1.7663    -0.1944 H       
  26 H26            3.2705    -0.6081    -0.1058 H       
  27 H27            1.1396     3.1200    -0.1604 H       
  28 H28            4.6240     5.6241    -2.1069 H       
  29 H29            3.0501     5.7447    -1.2847 H       
  30 H30            5.2551     7.8556    -1.2407 H       
  31 H31            3.7422     7.9473    -2.1753 H       
  32 H32            2.4269     7.8778    -0.0890 H       
  33 H33            5.1503     7.8385     1.2920 H       
  34 H34            3.5653     7.9184     2.0996 H       
  35 H35            2.9504     5.7284     1.1251 H       
  36 H36            4.4511     5.5958     2.0728 H       
  37 H37            3.2040    10.0785    -0.9341 H       
  38 H38            3.1255    10.0670     0.8441 H       
  39 H39            4.6969     9.9168     0.0216 H       
  40 H40            7.1898     0.2204     0.0465 H       
  41 H41            9.3469     3.7663     0.1501 H       
  42 H42            7.3219     5.1342     0.0898 H       
@<TRIPOS>BOND
   1    1    2 ar
   2    1    6 ar
   3    1   24 1
   4    2    3 ar
   5    3    4 ar
   6    3   25 1
   7    4    5 ar
   8    4   26 1
   9    5    6 ar
  10    5    7 1
  11    6   27 1
  12    7    8 ar
  13    7   12 ar
  14    8    9 ar
  15    9   20 ar
  16    9   10 ar
  17   10   11 ar
  18   10   23 ar
  19   11   12 ar
  20   11   13 1
  21   13   14 1
  22   13   18 1
  23   14   15 1
  24   14   28 1
  25   14   29 1
  26   15   16 1
  27   15   30 1
  28   15   31 1
  29   16   17 1
  30   16   19 1
  31   16   32 1
  32   17   18 1
  33   17   33 1
  34   17   34 1
  35   18   35 1
  36   18   36 1
  37   19   37 1
  38   19   38 1
  39   19   39 1
  40   20   21 ar
  41   20   40 1
  42   21   22 ar
  43   22   23 ar
  44   22   41 1
  45   23   42 1

#	End of record

