#	Name: ASD07020006
#	Creating user name:	WinNT
#	Creation time:	15. 06. 2019 21:08

#	Modifying user name:	WinNT
#	Modification time:	15. 06. 2019 21:08

#	Program:	/corina/corina34_cracker 3.40 0067  02.08.2006

@<TRIPOS>MOLECULE
ASD07020006
  45   49    0    0    0
SMALL
NO_CHARGES


@<TRIPOS>ATOM
   1 C1            -8.8520     0.5414     2.6550 C.2     
   2 N2            -8.6831    -0.6543     2.0337 N.pl3   
   3 C3            -9.9332    -1.1592     1.7864 C.2     
   4 C4           -10.8175    -0.2614     2.2615 C.2     
   5 C5            -7.4595    -1.2588     1.7063 C.ar    
   6 C6            -6.2655    -0.6246     2.0213 C.ar    
   7 C7            -5.0620    -1.2195     1.6989 C.ar    
   8 C8            -5.0459    -2.4512     1.0603 C.ar    
   9 C9            -6.2390    -3.0854     0.7453 C.ar    
  10 C10           -7.4429    -2.4937     1.0724 C.ar    
  11 O11           -3.8607    -3.0365     0.7426 O.3     
  12 C12           -3.8256    -4.3867     0.6395 C.ar    
  13 N13           -2.6761    -4.9830     0.3691 N.ar    
  14 C14           -2.6077    -6.3049     0.2619 C.ar    
  15 C15           -3.7668    -7.0591     0.4385 C.ar    
  16 C16           -4.9473    -6.3971     0.7197 C.ar    
  17 N17           -4.9411    -5.0762     0.8172 N.ar    
  18 C18           -6.2257    -7.1699     0.9181 C.3     
  19 O19           -1.4284    -6.9118    -0.0157 O.3     
  20 C20           -0.6219    -6.3425    -0.9506 C.ar    
  21 C21           -1.0683    -5.2494    -1.6779 C.ar    
  22 C22           -0.2499    -4.6689    -2.6290 C.ar    
  23 C23            1.0178    -5.1773    -2.8582 C.ar    
  24 C24            1.4683    -6.2754    -2.1289 C.ar    
  25 C25            0.6491    -6.8517    -1.1727 C.ar    
  26 O26            2.0030    -4.7949    -3.7236 O.3     
  27 C27            3.2075    -5.4109    -3.2310 C.3     
  28 O28            2.7347    -6.5805    -2.5372 O.3     
  29 N29          -10.1314     0.7651     2.7853 N.2     
  30 H30           -8.0603     1.1955     2.9893 H       
  31 H31          -10.1647    -2.0970     1.3033 H       
  32 H32          -11.8931    -0.3520     2.2262 H       
  33 H33           -6.2780     0.3343     2.5181 H       
  34 H34           -4.1331    -0.7260     1.9436 H       
  35 H35           -6.2261    -4.0441     0.2481 H       
  36 H36           -8.3715    -2.9895     0.8312 H       
  37 H37           -3.7431    -8.1358     0.3571 H       
  38 H38           -6.3346    -7.4279     1.9715 H       
  39 H39           -7.0721    -6.5589     0.6043 H       
  40 H40           -6.1952    -8.0820     0.3219 H       
  41 H41           -2.0565    -4.8512    -1.5013 H       
  42 H42           -0.5998    -3.8178    -3.1944 H       
  43 H43            0.9981    -7.7003    -0.6030 H       
  44 H44            3.8591    -5.6933    -4.0579 H       
  45 H45            3.7265    -4.7420    -2.5444 H       
@<TRIPOS>BOND
   1    1    2 1
   2    1   29 2
   3    1   30 1
   4    2    3 1
   5    2    5 1
   6    3    4 2
   7    3   31 1
   8    4   29 1
   9    4   32 1
  10    5    6 ar
  11    5   10 ar
  12    6    7 ar
  13    6   33 1
  14    7    8 ar
  15    7   34 1
  16    8    9 ar
  17    8   11 1
  18    9   10 ar
  19    9   35 1
  20   10   36 1
  21   11   12 1
  22   12   13 ar
  23   12   17 ar
  24   13   14 ar
  25   14   15 ar
  26   14   19 1
  27   15   16 ar
  28   15   37 1
  29   16   17 ar
  30   16   18 1
  31   18   38 1
  32   18   39 1
  33   18   40 1
  34   19   20 1
  35   20   21 ar
  36   20   25 ar
  37   21   22 ar
  38   21   41 1
  39   22   23 ar
  40   22   42 1
  41   23   24 ar
  42   23   26 1
  43   24   25 ar
  44   24   28 1
  45   25   43 1
  46   26   27 1
  47   27   28 1
  48   27   44 1
  49   27   45 1

#	End of record

