#	Name: ASD02038615
#	Creating user name:	WinNT
#	Creation time:	15. 06. 2019 20:17

#	Modifying user name:	WinNT
#	Modification time:	15. 06. 2019 20:17

#	Program:	/corina/corina34_cracker 3.40 0067  02.08.2006

@<TRIPOS>MOLECULE
ASD02038615
  46   47    0    0    0
SMALL
NO_CHARGES


@<TRIPOS>ATOM
   1 C1             0.2336     2.2953    -0.5074 C.ar    
   2 C2            -0.8244     2.5856     0.3376 C.ar    
   3 C3            -1.9626     1.8014     0.3157 C.ar    
   4 C4            -2.0440     0.7229    -0.5547 C.ar    
   5 C5            -0.9813     0.4347    -1.4012 C.ar    
   6 C6             0.1518     1.2238    -1.3792 C.ar    
   7 N7            -3.1951    -0.0731    -0.5786 N.am    
   8 C8            -4.4065     0.4881    -0.3940 C.2     
   9 C9            -5.6528    -0.3486    -0.5272 C.3     
  10 N10           -6.8338     0.4894    -0.2806 N.3     
  11 C11           -8.0702    -0.2944    -0.4023 C.3     
  12 C12           -9.2757     0.6103    -0.1393 C.3     
  13 O13           -9.3566     1.6052    -1.1620 O.3     
  14 C14          -10.3800     2.4968    -1.0763 C.ar    
  15 Cl15           1.6620     3.2815    -0.4781 Cl      
  16 C16          -10.5173     3.4886    -2.0362 C.ar    
  17 C17          -11.2891     2.4104    -0.0323 C.ar    
  18 C18          -12.3288     3.3151     0.0552 C.ar    
  19 C19          -12.4638     4.3119    -0.9022 C.ar    
  20 C20          -11.5562     4.3945    -1.9500 C.ar    
  21 N21          -13.5170     5.2290    -0.8144 N.am    
  22 S22          -13.4648     6.4448     0.3088 S.o2    
  23 O23          -14.6740     7.1627     0.1046 O.2     
  24 Cl24          -0.7210     3.9345     1.4254 Cl      
  25 O25          -13.2076     5.7770     1.5364 O.2     
  26 C26          -12.0368     7.4512    -0.1798 C.3     
  27 O27           -4.4935     1.6666    -0.1205 O.2     
  28 H28           -2.7875     2.0273     0.9752 H       
  29 H29           -1.0425    -0.4041    -2.0788 H       
  30 H30            0.9780     0.9999    -2.0377 H       
  31 H31           -3.1210    -1.0286    -0.7282 H       
  32 H32           -5.7057    -0.7639    -1.5336 H       
  33 H33           -5.6250    -1.1602     0.1998 H       
  34 H34           -6.7772     0.9377     0.6215 H       
  35 H35           -8.1399    -0.7094    -1.4078 H       
  36 H36           -8.0592    -1.1057     0.3256 H       
  37 H37          -10.1866     0.0118    -0.1418 H       
  38 H38           -9.1618     1.0946     0.8305 H       
  39 H39           -9.8114     3.5527    -2.8510 H       
  40 H40          -11.1840     1.6351     0.7122 H       
  41 H41          -13.0370     3.2472     0.8677 H       
  42 H42          -11.6604     5.1694    -2.6950 H       
  43 H43          -14.2778     5.1526    -1.4113 H       
  44 H44          -12.2278     7.9051    -1.1522 H       
  45 H45          -11.8736     8.2341     0.5609 H       
  46 H46          -11.1509     6.8192    -0.2415 H       
@<TRIPOS>BOND
   1    1    2 ar
   2    1   15 1
   3    1    6 ar
   4    2    3 ar
   5    2   24 1
   6    3    4 ar
   7    3   28 1
   8    4    5 ar
   9    4    7 1
  10    5    6 ar
  11    5   29 1
  12    6   30 1
  13    7    8 am
  14    7   31 1
  15    8    9 1
  16    8   27 2
  17    9   10 1
  18    9   32 1
  19    9   33 1
  20   10   11 1
  21   10   34 1
  22   11   12 1
  23   11   35 1
  24   11   36 1
  25   12   13 1
  26   12   37 1
  27   12   38 1
  28   13   14 1
  29   14   16 ar
  30   14   17 ar
  31   16   20 ar
  32   16   39 1
  33   17   18 ar
  34   17   40 1
  35   18   19 ar
  36   18   41 1
  37   19   20 ar
  38   19   21 1
  39   20   42 1
  40   21   22 am
  41   21   43 1
  42   22   23 2
  43   22   25 2
  44   22   26 1
  45   26   44 1
  46   26   45 1
  47   26   46 1

#	End of record

