#	Name: ASD03730873
#	Creating user name:	WinNT
#	Creation time:	15. 06. 2019 20:44

#	Modifying user name:	WinNT
#	Modification time:	15. 06. 2019 20:44

#	Program:	/corina/corina34_cracker 3.40 0067  02.08.2006

@<TRIPOS>MOLECULE
ASD03730873
  65   72    0    0    0
SMALL
NO_CHARGES


@<TRIPOS>ATOM
   1 C1             1.1481    -0.9060    -2.6396 C.2     
   2 C2             0.3491    -0.9754    -1.3980 C.ar    
   3 C3             0.6122    -0.0974    -0.3449 C.ar    
   4 C4            -0.1371    -0.1676     0.8110 C.ar    
   5 C5            -1.1478    -1.1056     0.9282 C.ar    
   6 C6            -1.4135    -1.9788    -0.1114 C.ar    
   7 C7            -0.6755    -1.9153    -1.2755 C.ar    
   8 O8             1.9733    -0.0249    -2.7829 O.2     
   9 N9             0.9656    -1.8228    -3.6105 N.am    
  10 C10            1.7128     0.9243    -0.4705 C.3     
  11 O11            0.0623    -0.2986     6.4194 O.3     
  12 C12           -0.0060     0.0874     7.8048 C.3     
  13 O13            1.2178     0.8153     8.0181 O.3     
  14 C14            1.5536     1.3313     6.7991 C.ar    
  15 C15            0.8435     0.6452     5.8165 C.ar    
  16 C16            2.4212     2.3481     6.4428 C.ar    
  17 C17            2.5930     2.6921     5.1053 C.ar    
  18 C18            1.8844     1.9940     4.1322 C.ar    
  19 C19            1.0141     0.9837     4.4846 C.ar    
  20 O20            3.3748     3.6606     4.5477 O.3     
  21 C21            2.2992     2.5691     2.8043 C.3     
  22 C22            3.5596     3.3746     3.1479 C.3     
  23 N23            1.7581     1.7449     0.7422 N.am    
  24 C24            2.5772     1.5022     1.7849 C.2     
  25 C25            1.2324     3.4311     2.1972 C.ar    
  26 C26            0.5605     4.5550     2.6232 C.ar    
  27 C27           -0.3965     5.1392     1.8126 C.ar    
  28 C28           -0.6768     4.5913     0.5740 C.ar    
  29 C29           -0.0072     3.4651     0.1432 C.ar    
  30 C30            0.9579     2.8706     0.9524 C.ar    
  31 O31            3.3814     0.5994     1.8807 O.2     
  32 C32            1.6057    -1.6725    -4.8410 C.ar    
  33 C33            2.8025    -0.9934    -4.9241 C.ar    
  34 C34            3.4489    -0.8380    -6.1466 C.ar    
  35 C35            2.9197    -1.3503    -7.2919 C.ar    
  36 C36            1.7015    -2.0493    -7.2505 C.ar    
  37 C37            1.1313    -2.5886    -8.4168 C.ar    
  38 C38           -0.0503    -3.2597    -8.3406 C.ar    
  39 C39           -0.7063    -3.4210    -7.1218 C.ar    
  40 C40           -0.1834    -2.9121    -5.9723 C.ar    
  41 C41            1.0368    -2.2193    -6.0110 C.ar    
  42 H42            0.0656     0.5107     1.6266 H       
  43 H43           -1.7316    -1.1563     1.8354 H       
  44 H44           -2.2034    -2.7088    -0.0134 H       
  45 H45           -0.8871    -2.5944    -2.0882 H       
  46 H46            0.3894    -2.5872    -3.4537 H       
  47 H47            2.6679     0.4154    -0.6007 H       
  48 H48            1.5201     1.5617    -1.3335 H       
  49 H49           -0.8691     0.7293     7.9814 H       
  50 H50           -0.0447    -0.7930     8.4463 H       
  51 H51            2.9688     2.8786     7.2077 H       
  52 H52            0.4644     0.4551     3.7199 H       
  53 H53            3.6007     4.2958     2.5667 H       
  54 H54            4.4567     2.7758     2.9903 H       
  55 H55            0.7809     4.9811     3.5909 H       
  56 H56           -0.9230     6.0212     2.1460 H       
  57 H57           -1.4239     5.0473    -0.0587 H       
  58 H58           -0.2321     3.0427    -0.8250 H       
  59 H59            3.2432    -0.5770    -4.0304 H       
  60 H60            4.3855    -0.3018    -6.1877 H       
  61 H61            3.4358    -1.2192    -8.2315 H       
  62 H62            1.6281    -2.4707    -9.3684 H       
  63 H63           -0.4862    -3.6730    -9.2382 H       
  64 H64           -1.6432    -3.9572    -7.0886 H       
  65 H65           -0.7029    -3.0443    -5.0347 H       
@<TRIPOS>BOND
   1    1    2 1
   2    1    8 2
   3    1    9 am
   4    2    3 ar
   5    2    7 ar
   6    3    4 ar
   7    3   10 1
   8    4    5 ar
   9    4   42 1
  10    5    6 ar
  11    5   43 1
  12    6    7 ar
  13    6   44 1
  14    7   45 1
  15    9   32 1
  16    9   46 1
  17   10   23 1
  18   10   47 1
  19   10   48 1
  20   11   12 1
  21   11   15 1
  22   12   13 1
  23   12   49 1
  24   12   50 1
  25   13   14 1
  26   14   15 ar
  27   14   16 ar
  28   15   19 ar
  29   16   17 ar
  30   16   51 1
  31   17   18 ar
  32   17   20 1
  33   18   19 ar
  34   18   21 1
  35   19   52 1
  36   20   22 1
  37   21   22 1
  38   21   24 1
  39   21   25 1
  40   22   53 1
  41   22   54 1
  42   23   24 am
  43   23   30 1
  44   24   31 2
  45   25   26 ar
  46   25   30 ar
  47   26   27 ar
  48   26   55 1
  49   27   28 ar
  50   27   56 1
  51   28   29 ar
  52   28   57 1
  53   29   30 ar
  54   29   58 1
  55   32   33 ar
  56   32   41 ar
  57   33   34 ar
  58   33   59 1
  59   34   35 ar
  60   34   60 1
  61   35   36 ar
  62   35   61 1
  63   36   37 ar
  64   36   41 ar
  65   37   38 ar
  66   37   62 1
  67   38   39 ar
  68   38   63 1
  69   39   40 ar
  70   39   64 1
  71   40   41 ar
  72   40   65 1

#	End of record

