#	Name: ASD01208932
#	Creating user name:	WinNT
#	Creation time:	15. 06. 2019 19:10

#	Modifying user name:	WinNT
#	Modification time:	15. 06. 2019 19:10

#	Program:	/corina/corina34_cracker 3.40 0067  02.08.2006

@<TRIPOS>MOLECULE
ASD01208932
  57   60    0    0    0
SMALL
NO_CHARGES


@<TRIPOS>ATOM
   1 C1            -0.2603     1.7862     0.5528 C.2     
   2 C2            -0.2293     0.3261     0.3252 C.ar    
   3 C3             0.9385    -0.2863    -0.1321 C.ar    
   4 C4             0.9635    -1.6547    -0.3435 C.ar    
   5 C5            -0.1705    -2.4169    -0.1018 C.ar    
   6 C6            -1.3338    -1.8123     0.3524 C.ar    
   7 C7            -1.3656    -0.4447     0.5725 C.ar    
   8 O8             0.7321     2.4554     0.3416 O.2     
   9 N9            -1.3907     2.3764     0.9891 N.am    
  10 O10           -2.4418    -2.5632     0.5867 O.3     
  11 C11           -3.4402    -2.5309    -0.3335 C.ar    
  12 C12           -4.6120    -3.2427    -0.1097 C.ar    
  13 C13           -5.6273    -3.2125    -1.0410 C.ar    
  14 C14           -5.4772    -2.4647    -2.2106 C.ar    
  15 C15           -4.2982    -1.7502    -2.4317 C.ar    
  16 C16           -3.2893    -1.7816    -1.4934 C.ar    
  17 O17           -6.5542    -1.7543    -4.3785 O.3     
  18 C18           -6.5633    -2.4300    -3.2120 C.2     
  19 N19           -7.7167    -3.0517    -3.1318 N.2     
  20 N20           -8.4118    -2.7936    -4.1833 N.2     
  21 C21           -7.7358    -2.0038    -4.9697 C.2     
  22 C22           -8.1954    -1.4677    -6.3010 C.3     
  23 O23            2.1002    -2.2519    -0.7888 O.3     
  24 C24            3.1040    -4.0000    -2.1218 C.3     
  25 C25            2.0224    -3.6445    -1.0997 C.3     
  26 C26            2.2358    -4.4642     0.1745 C.3     
  27 O27            4.3936    -3.8152    -1.5346 O.3     
  28 C28            5.4803    -4.1215    -2.4105 C.3     
  29 S29           -2.7838     4.6114     1.7518 S.3     
  30 C30           -1.4197     3.7410     1.2017 C.2     
  31 N31           -0.4107     4.5431     1.0114 N.2     
  32 C32           -0.5976     5.8117     1.2590 C.2     
  33 C33           -1.8648     6.1137     1.6941 C.2     
  34 C34           -2.3440     7.3945     2.0328 C.2     
  35 O35           -3.4914     7.5346     2.4066 O.2     
  36 H36            1.8215     0.3062    -0.3211 H       
  37 H37           -0.1477    -3.4837    -0.2680 H       
  38 H38           -2.2701     0.0246     0.9304 H       
  39 H39           -2.1839     1.8429     1.1538 H       
  40 H40           -4.7273    -3.8209     0.7953 H       
  41 H41           -6.5377    -3.7667    -0.8666 H       
  42 H42           -4.1783    -1.1710    -3.3354 H       
  43 H43           -2.3785    -1.2262    -1.6620 H       
  44 H44           -7.8983    -2.1562    -7.0921 H       
  45 H45           -9.2806    -1.3658    -6.2966 H       
  46 H46           -7.7397    -0.4933    -6.4772 H       
  47 H47            2.9888    -5.0405    -2.4256 H       
  48 H48            3.0059    -3.3538    -2.9941 H       
  49 H49            1.0407    -3.8695    -1.5163 H       
  50 H50            2.1764    -5.5264    -0.0626 H       
  51 H51            3.2175    -4.2392     0.5912 H       
  52 H52            1.4653    -4.2109     0.9027 H       
  53 H53            5.4316    -3.4778    -3.2888 H       
  54 H54            6.4239    -3.9558    -1.8905 H       
  55 H55            5.4145    -5.1644    -2.7203 H       
  56 H56            0.1747     6.5561     1.1333 H       
  57 H57           -1.6913     8.2519     1.9600 H       
@<TRIPOS>BOND
   1    1    2 1
   2    1    8 2
   3    1    9 am
   4    2    3 ar
   5    2    7 ar
   6    3    4 ar
   7    3   36 1
   8    4    5 ar
   9    4   23 1
  10    5    6 ar
  11    5   37 1
  12    6    7 ar
  13    6   10 1
  14    7   38 1
  15    9   30 1
  16    9   39 1
  17   10   11 1
  18   11   12 ar
  19   11   16 ar
  20   12   13 ar
  21   12   40 1
  22   13   14 ar
  23   13   41 1
  24   14   15 ar
  25   14   18 1
  26   15   16 ar
  27   15   42 1
  28   16   43 1
  29   17   18 1
  30   17   21 1
  31   18   19 2
  32   19   20 1
  33   20   21 2
  34   21   22 1
  35   22   44 1
  36   22   45 1
  37   22   46 1
  38   23   25 1
  39   24   25 1
  40   24   27 1
  41   24   47 1
  42   24   48 1
  43   25   26 1
  44   25   49 1
  45   26   50 1
  46   26   51 1
  47   26   52 1
  48   27   28 1
  49   28   53 1
  50   28   54 1
  51   28   55 1
  52   29   30 1
  53   29   33 1
  54   30   31 2
  55   31   32 1
  56   32   33 2
  57   32   56 1
  58   33   34 1
  59   34   35 2
  60   34   57 1

#	End of record

