#	Name: ASD01411202
#	Creating user name:	WinNT
#	Creation time:	15. 06. 2019 19:19

#	Modifying user name:	WinNT
#	Modification time:	15. 06. 2019 19:19

#	Program:	/corina/corina34_cracker 3.40 0067  02.08.2006

@<TRIPOS>MOLECULE
ASD01411202
  68   71    0    0    0
SMALL
NO_CHARGES


@<TRIPOS>ATOM
   1 C1            -0.5295    -0.0578    -1.7394 C.ar    
   2 C2            -0.2569    -1.4029    -1.7522 C.ar    
   3 C3             0.9852    -1.8810    -2.1644 C.ar    
   4 C4             1.9621    -0.9780    -2.5614 C.ar    
   5 C5             1.6943     0.3769    -2.5484 C.ar    
   6 C6             0.4520     0.8441    -2.1404 C.ar    
   7 P7            -1.4945    -2.6282    -1.2293 P.3     
   8 N8            -0.7004    -4.0597    -1.0444 N.2     
   9 C9             0.5037    -4.1936    -1.5096 C.2     
  10 N10            1.2262    -3.2534    -2.1783 N.pl3   
  11 C11            1.1563    -5.4982    -1.2911 C.2     
  12 C12            0.5992    -6.5601    -0.6463 C.2     
  13 C13            1.6301    -7.6653    -0.6661 C.3     
  14 N14            2.7943    -7.1194    -1.3740 N.am    
  15 C15            2.5039    -5.8578    -1.7389 C.2     
  16 O16           -2.1016    -2.2169     0.0563 O.2     
  17 O17           -2.6350    -2.7734    -2.3564 O.3     
  18 O18           -0.6274    -6.6148    -0.0989 O.3     
  19 O19            3.2542    -5.1200    -2.3497 O.2     
  20 C20           -3.4563    -1.6825    -2.7777 C.3     
  21 C21           -4.4295    -2.1635    -3.8559 C.3     
  22 C22            2.0158    -8.0518     0.7631 C.3     
  23 C23            0.7524    -8.3784     1.5618 C.3     
  24 C24            2.9299    -9.2783     0.7306 C.3     
  25 C25            2.7510    -6.8853     1.4261 C.3     
  26 N26            0.1872     2.2182    -2.1328 N.am    
  27 S27            0.1732     3.0508    -0.7014 S.o2    
  28 O28           -0.0096     4.4064    -1.0863 O.2     
  29 O29           -0.7972     2.3759     0.0872 O.2     
  30 C30            1.8346     2.8021    -0.0168 C.3     
  31 C31            4.0492    -7.8264    -1.6416 C.3     
  32 C32            3.9296    -8.5974    -2.9577 C.3     
  33 C33            5.2402    -9.3358    -3.2372 C.3     
  34 C34            5.2832   -10.2630    -4.4535 C.3     
  35 C35            6.0293    -8.9275    -4.4827 C.3     
  36 H36           -1.4995     0.2978    -1.4248 H       
  37 H37            2.9305    -1.3346    -2.8798 H       
  38 H38            2.4559     1.0773    -2.8576 H       
  39 H39            1.9739    -3.5662    -2.7112 H       
  40 H40            1.2400    -8.5330    -1.1981 H       
  41 H41           -1.1747    -5.8205    -0.1678 H       
  42 H42           -4.0182    -1.3005    -1.9254 H       
  43 H43           -2.8276    -0.8898    -3.1832 H       
  44 H44           -5.0559    -1.3314    -4.1773 H       
  45 H45           -3.8676    -2.5456    -4.7082 H       
  46 H46           -5.0582    -2.9562    -3.4504 H       
  47 H47            0.2286    -9.2094     1.0894 H       
  48 H48            1.0272    -8.6538     2.5800 H       
  49 H49            0.1012    -7.5046     1.5849 H       
  50 H50            3.9591    -8.9601     0.5645 H       
  51 H51            2.8620    -9.8073     1.6812 H       
  52 H52            2.6198    -9.9413    -0.0771 H       
  53 H53            2.0998    -6.0115     1.4493 H       
  54 H54            3.0258    -7.1606     2.4443 H       
  55 H55            3.6511    -6.6526     0.8571 H       
  56 H56            0.0119     2.6829    -2.9660 H       
  57 H57            2.5796     3.1152    -0.7482 H       
  58 H58            1.9457     3.3944     0.8914 H       
  59 H59            1.9767     1.7471     0.2178 H       
  60 H60            4.8637    -7.1057    -1.7155 H       
  61 H61            4.2537    -8.5237    -0.8293 H       
  62 H62            3.1152    -9.3181    -2.8838 H       
  63 H63            3.7251    -7.9001    -3.7701 H       
  64 H64            5.8086    -9.6344    -2.3563 H       
  65 H65            5.8802   -11.1714    -4.3730 H       
  66 H66            4.3778   -10.3469    -5.0546 H       
  67 H67            5.6148    -8.1329    -5.1031 H       
  68 H68            7.1172    -8.9574    -4.4215 H       
@<TRIPOS>BOND
   1    1    2 ar
   2    1    6 ar
   3    1   36 1
   4    2    3 ar
   5    2    7 1
   6    3    4 ar
   7    3   10 1
   8    4    5 ar
   9    4   37 1
  10    5    6 ar
  11    5   38 1
  12    6   26 1
  13    7    8 1
  14    7   16 2
  15    7   17 1
  16    8    9 2
  17    9   10 1
  18    9   11 1
  19   10   39 1
  20   11   12 2
  21   11   15 1
  22   12   13 1
  23   12   18 1
  24   13   14 1
  25   13   22 1
  26   13   40 1
  27   14   15 am
  28   14   31 1
  29   15   19 2
  30   17   20 1
  31   18   41 1
  32   20   21 1
  33   20   42 1
  34   20   43 1
  35   21   44 1
  36   21   45 1
  37   21   46 1
  38   22   23 1
  39   22   24 1
  40   22   25 1
  41   23   47 1
  42   23   48 1
  43   23   49 1
  44   24   50 1
  45   24   51 1
  46   24   52 1
  47   25   53 1
  48   25   54 1
  49   25   55 1
  50   26   27 am
  51   26   56 1
  52   27   28 2
  53   27   29 2
  54   27   30 1
  55   30   57 1
  56   30   58 1
  57   30   59 1
  58   31   32 1
  59   31   60 1
  60   31   61 1
  61   32   33 1
  62   32   62 1
  63   32   63 1
  64   33   34 1
  65   33   35 1
  66   33   64 1
  67   34   35 1
  68   34   65 1
  69   34   66 1
  70   35   67 1
  71   35   68 1

#	End of record

