#	Name: ASD01152518
#	Creating user name:	WinNT
#	Creation time:	15. 06. 2019 19:06

#	Modifying user name:	WinNT
#	Modification time:	15. 06. 2019 19:06

#	Program:	/corina/corina34_cracker 3.40 0067  02.08.2006

@<TRIPOS>MOLECULE
ASD01152518
  50   52    0    0    0
SMALL
NO_CHARGES


@<TRIPOS>ATOM
   1 C1             0.1107     1.1569    -0.6965 C.2     
   2 N2             0.0184    -0.1438    -0.6179 N.2     
   3 N3            -1.1208    -0.7663    -0.1081 N.am    
   4 C4            -2.2618    -0.0996     0.1332 C.2     
   5 C5            -2.3931     1.3532    -0.2595 C.3     
   6 C6            -1.0091     1.9734    -0.2041 C.2     
   7 C7            -2.9569     1.4574    -1.6780 C.3     
   8 O8            -0.8367     3.0970     0.2214 O.2     
   9 C9            -1.0736    -2.1392     0.1619 C.ar    
  10 O10           -3.1905    -0.6665     0.6685 O.2     
  11 C11           -3.2001     2.9055    -2.0168 C.ar    
  12 C12           -0.0101    -2.6697     0.8787 C.ar    
  13 C13           -2.0943    -2.9704    -0.2825 C.ar    
  14 C14           -2.0494    -4.3253    -0.0164 C.ar    
  15 C15           -0.9885    -4.8585     0.6937 C.ar    
  16 C16            0.0336    -4.0301     1.1451 C.ar    
  17 C17           -2.1995     3.6531    -2.6075 C.ar    
  18 C18           -4.4260     3.4822    -1.7411 C.ar    
  19 C19           -4.6533     4.8122    -2.0518 C.ar    
  20 C20           -3.6512     5.5670    -2.6394 C.ar    
  21 C21           -2.4218     4.9861    -2.9199 C.ar    
  22 F22           -3.8715     6.8647    -2.9436 F       
  23 F23           -0.9475    -6.1838     0.9528 F       
  24 F24           -5.8523     5.3736    -1.7825 F       
  25 N25            1.1054    -4.5690     1.8677 N.am    
  26 C26            1.7698    -3.8055     2.7576 C.2     
  27 O27            1.5003    -2.6279     2.8670 O.2     
  28 C28            2.8477    -4.4147     3.6167 C.3     
  29 O29            1.2204     1.7434    -1.2172 O.3     
  30 C30            2.2629     0.8753    -1.6663 C.3     
  31 O31           -1.4360     5.7238    -3.4964 O.3     
  32 C32           -0.1971     5.0607    -3.7564 C.3     
  33 H33           -3.0536     1.8662     0.4395 H       
  34 H34           -2.2432     1.0339    -2.3847 H       
  35 H35           -3.8963     0.9077    -1.7370 H       
  36 H36            0.7822    -2.0243     1.2282 H       
  37 H37           -2.9241    -2.5569    -0.8365 H       
  38 H38           -2.8440    -4.9694    -0.3629 H       
  39 H39           -1.2439     3.1996    -2.8257 H       
  40 H40           -5.2077     2.8943    -1.2831 H       
  41 H41            1.3695    -5.4918     1.7277 H       
  42 H42            2.9468    -5.4738     3.3786 H       
  43 H43            3.7941    -3.9091     3.4252 H       
  44 H44            2.5816    -4.3020     4.6677 H       
  45 H45            3.0878     1.4705    -2.0578 H       
  46 H46            2.6160     0.2696    -0.8317 H       
  47 H47            1.8800     0.2238    -2.4518 H       
  48 H48            0.2218     4.6932    -2.8196 H       
  49 H49           -0.3684     4.2222    -4.4315 H       
  50 H50            0.5003     5.7609    -4.2163 H       
@<TRIPOS>BOND
   1    1    2 2
   2    1   29 1
   3    1    6 1
   4    2    3 1
   5    3    4 am
   6    3    9 1
   7    4    5 1
   8    4   10 2
   9    5    6 1
  10    5    7 1
  11    5   33 1
  12    6    8 2
  13    7   11 1
  14    7   34 1
  15    7   35 1
  16    9   12 ar
  17    9   13 ar
  18   11   17 ar
  19   11   18 ar
  20   12   16 ar
  21   12   36 1
  22   13   14 ar
  23   13   37 1
  24   14   15 ar
  25   14   38 1
  26   15   16 ar
  27   15   23 1
  28   16   25 1
  29   17   21 ar
  30   17   39 1
  31   18   19 ar
  32   18   40 1
  33   19   20 ar
  34   19   24 1
  35   20   21 ar
  36   20   22 1
  37   21   31 1
  38   25   26 am
  39   25   41 1
  40   26   27 2
  41   26   28 1
  42   28   42 1
  43   28   43 1
  44   28   44 1
  45   29   30 1
  46   30   45 1
  47   30   46 1
  48   30   47 1
  49   31   32 1
  50   32   48 1
  51   32   49 1
  52   32   50 1

#	End of record

