#	Name: ASD03320020
#	Creating user name:	WinNT
#	Creation time:	15. 06. 2019 20:35

#	Modifying user name:	WinNT
#	Modification time:	15. 06. 2019 20:35

#	Program:	/corina/corina34_cracker 3.40 0067  02.08.2006

@<TRIPOS>MOLECULE
ASD03320020
  60   64    0    0    0
SMALL
NO_CHARGES


@<TRIPOS>ATOM
   1 C1            -0.0638     1.3540    -0.1689 C.ar    
   2 C2            -0.0010    -0.0248    -0.3689 C.ar    
   3 C3             1.0866     2.1101    -0.2145 C.ar    
   4 C4             2.3161     1.4956    -0.4612 C.ar    
   5 C5             2.3779     0.1149    -0.6614 C.ar    
   6 C6             1.2265    -0.6394    -0.6153 C.ar    
   7 C7             3.5513     2.3062    -0.5109 C.2     
   8 N8             3.5542     3.4913    -1.1527 N.am    
   9 O9             4.5643     1.9039     0.0271 O.2     
  10 C10           -1.2403    -0.8381    -0.3190 C.ar    
  11 C11           -1.1904    -2.2155    -0.5171 C.ar    
  12 C12           -2.3850    -2.9337    -0.4599 C.ar    
  13 N13           -3.5191    -2.2813    -0.2201 N.ar    
  14 C14           -3.5242    -0.9759    -0.0379 C.ar    
  15 N15           -2.4191    -0.2622    -0.0782 N.ar    
  16 N16           -2.3901    -4.3071    -0.6507 N.pl3   
  17 C17           -3.5855    -5.0242    -0.5388 C.ar    
  18 C18           -3.5750    -6.3231    -0.0445 C.ar    
  19 C19           -4.7586    -7.0284     0.0651 C.ar    
  20 C20           -5.9516    -6.4428    -0.3165 C.ar    
  21 C21           -5.9650    -5.1504    -0.8088 C.ar    
  22 C22           -4.7867    -4.4380    -0.9160 C.ar    
  23 C23            4.7397     4.3592    -1.1156 C.3     
  24 C24            5.1630     4.6726    -2.5560 C.3     
  25 N25            3.9809     5.1200    -3.3060 N.am    
  26 C26            2.7955     4.2521    -3.3432 C.3     
  27 C27            2.3742     3.9362    -1.9074 C.3     
  28 C28            3.9839     6.3051    -3.9479 C.2     
  29 C29            5.2197     7.1135    -4.0010 C.ar    
  30 O30            2.9699     6.7089    -4.4831 O.2     
  31 C31            5.1952     8.4584    -3.6242 C.ar    
  32 C32            6.3549     9.2075    -3.6761 C.ar    
  33 C33            7.5368     8.6285    -4.0999 C.ar    
  34 C34            7.5672     7.2964    -4.4750 C.ar    
  35 C35            6.4186     6.5351    -4.4227 C.ar    
  36 Cl36           3.7117     9.1865    -3.0925 Cl      
  37 Cl37          -2.0772    -7.0588     0.4342 Cl      
  38 H38           -1.0153     1.8297     0.0174 H       
  39 H39            1.0377     3.1778    -0.0599 H       
  40 H40            3.3283    -0.3611    -0.8526 H       
  41 H41            1.2741    -1.7072    -0.7701 H       
  42 H42           -0.2522    -2.7143    -0.7102 H       
  43 H43           -4.4628    -0.4776     0.1548 H       
  44 H44           -1.5645    -4.7705    -0.8618 H       
  45 H45           -4.7515    -8.0379     0.4488 H       
  46 H46           -6.8751    -6.9961    -0.2303 H       
  47 H47           -6.8987    -4.6964    -1.1062 H       
  48 H48           -4.7984    -3.4288    -1.3006 H       
  49 H49            4.4984     5.2861    -0.5953 H       
  50 H50            5.5516     3.8474    -0.5988 H       
  51 H51            5.9146     5.4620    -2.5529 H       
  52 H52            5.5729     3.7756    -3.0203 H       
  53 H53            1.9835     4.7639    -3.8599 H       
  54 H54            3.0368     3.3252    -3.8635 H       
  55 H55            1.6226     3.1467    -1.9120 H       
  56 H56            1.9645     4.8320    -1.4408 H       
  57 H57            6.3381    10.2476    -3.3855 H       
  58 H58            8.4406     9.2185    -4.1387 H       
  59 H59            8.4939     6.8510    -4.8052 H       
  60 H60            6.4443     5.4960    -4.7158 H       
@<TRIPOS>BOND
   1    1    2 ar
   2    1    3 ar
   3    1   38 1
   4    2   10 1
   5    2    6 ar
   6    3    4 ar
   7    3   39 1
   8    4    5 ar
   9    4    7 1
  10    5    6 ar
  11    5   40 1
  12    6   41 1
  13    7    8 am
  14    7    9 2
  15    8   23 1
  16    8   27 1
  17   10   11 ar
  18   10   15 ar
  19   11   12 ar
  20   11   42 1
  21   12   13 ar
  22   12   16 1
  23   13   14 ar
  24   14   15 ar
  25   14   43 1
  26   16   17 1
  27   16   44 1
  28   17   18 ar
  29   17   22 ar
  30   18   19 ar
  31   18   37 1
  32   19   20 ar
  33   19   45 1
  34   20   21 ar
  35   20   46 1
  36   21   22 ar
  37   21   47 1
  38   22   48 1
  39   23   24 1
  40   23   49 1
  41   23   50 1
  42   24   25 1
  43   24   51 1
  44   24   52 1
  45   25   26 1
  46   25   28 am
  47   26   27 1
  48   26   53 1
  49   26   54 1
  50   27   55 1
  51   27   56 1
  52   28   29 1
  53   28   30 2
  54   29   31 ar
  55   29   35 ar
  56   31   32 ar
  57   31   36 1
  58   32   33 ar
  59   32   57 1
  60   33   34 ar
  61   33   58 1
  62   34   35 ar
  63   34   59 1
  64   35   60 1

#	End of record

