#	Name: ASD01916074
#	Creating user name:	WinNT
#	Creation time:	15. 06. 2019 20:06

#	Modifying user name:	WinNT
#	Modification time:	15. 06. 2019 20:06

#	Program:	/corina/corina34_cracker 3.40 0067  02.08.2006

@<TRIPOS>MOLECULE
ASD01916074
  40   42    0    0    0
SMALL
NO_CHARGES


@<TRIPOS>ATOM
   1 C1            -0.4099     1.7398     0.1049 C.ar    
   2 C2            -0.5423     0.3895     0.3737 C.ar    
   3 N3             0.5010    -0.3402     0.7075 N.ar    
   4 C4             1.7188     0.1817     0.8004 C.ar    
   5 C5             1.9319     1.5325     0.5447 C.ar    
   6 C6             0.8479     2.3311     0.1896 C.ar    
   7 C7            -1.9012    -0.2556     0.2836 C.3     
   8 O8             1.0134     3.6534    -0.0685 O.3     
   9 C9             2.2651     4.1721     0.0366 C.ar    
  10 C10            3.1950     3.9758    -0.9740 C.ar    
  11 N11            4.4104     4.4772    -0.8773 N.ar    
  12 C12            4.7909     5.1791     0.1719 C.ar    
  13 C13            3.9200     5.4171     1.2207 C.ar    
  14 C14            2.6302     4.9125     1.1566 C.ar    
  15 C15            2.8605    -0.6824     1.1804 C.2     
  16 N16            2.6608    -1.9918     1.4299 N.am    
  17 O17            3.9770    -0.2107     1.2670 O.2     
  18 C18            3.7472    -2.8260     1.6839 C.ar    
  19 C19            3.5466    -4.1944     1.8251 C.ar    
  20 C20            4.6347    -5.0118     2.0768 C.ar    
  21 C21            5.8906    -4.4297     2.1789 C.ar    
  22 C22            6.0167    -3.0627     2.0275 C.ar    
  23 N23            4.9620    -2.3091     1.7832 N.ar    
  24 Cl24           4.4339     6.3424     2.5967 Cl      
  25 C25            7.3774    -2.4245     2.1377 C.3     
  26 H26           -1.2721     2.3283    -0.1720 H       
  27 H27            2.9227     1.9553     0.6211 H       
  28 H28           -2.0617    -0.6248    -0.7294 H       
  29 H29           -1.9561    -1.0870     0.9863 H       
  30 H30           -2.6689     0.4785     0.5285 H       
  31 H31            2.9205     3.4058    -1.8493 H       
  32 H32            5.7956     5.5731     0.2137 H       
  33 H33            1.9290     5.0825     1.9602 H       
  34 H34            1.7607    -2.3532     1.4326 H       
  35 H35            2.5551    -4.6139     1.7399 H       
  36 H36            4.5093    -6.0783     2.1916 H       
  37 H37            6.7602    -5.0394     2.3751 H       
  38 H38            7.8459    -2.3954     1.1539 H       
  39 H39            7.2727    -1.4092     2.5204 H       
  40 H40            7.9979    -3.0071     2.8186 H       
@<TRIPOS>BOND
   1    1    2 ar
   2    1    6 ar
   3    1   26 1
   4    2    3 ar
   5    2    7 1
   6    3    4 ar
   7    4    5 ar
   8    4   15 1
   9    5    6 ar
  10    5   27 1
  11    6    8 1
  12    7   28 1
  13    7   29 1
  14    7   30 1
  15    8    9 1
  16    9   10 ar
  17    9   14 ar
  18   10   11 ar
  19   10   31 1
  20   11   12 ar
  21   12   13 ar
  22   12   32 1
  23   13   14 ar
  24   13   24 1
  25   14   33 1
  26   15   16 am
  27   15   17 2
  28   16   18 1
  29   16   34 1
  30   18   19 ar
  31   18   23 ar
  32   19   20 ar
  33   19   35 1
  34   20   21 ar
  35   20   36 1
  36   21   22 ar
  37   21   37 1
  38   22   23 ar
  39   22   25 1
  40   25   38 1
  41   25   39 1
  42   25   40 1

#	End of record

