#	Name: ASD01190017
#	Creating user name:	WinNT
#	Creation time:	15. 06. 2019 19:07

#	Modifying user name:	WinNT
#	Modification time:	15. 06. 2019 19:07

#	Program:	/corina/corina34_cracker 3.40 0067  02.08.2006

@<TRIPOS>MOLECULE
ASD01190017
  50   53    0    0    0
SMALL
NO_CHARGES


@<TRIPOS>ATOM
   1 C1            -0.0187     1.5267     0.0104 C.3     
   2 C2            -3.6922    -0.1247     5.2393 C.ar    
   3 C3            -2.8824     0.1324     6.3364 C.ar    
   4 C4            -1.5289     0.3553     6.1562 C.ar    
   5 C5            -0.9683     0.3299     4.8847 C.ar    
   6 C6            -1.7860     0.0846     3.7955 C.ar    
   7 C7            -3.1379    -0.1479     3.9753 C.ar    
   8 C8             0.5165     0.5717     4.7831 C.3     
   9 C9             0.9563     0.7981     3.3305 C.3     
  10 C10            0.2673    -0.2802     2.5012 C.3     
  11 C11           -1.2143     0.0987     2.4054 C.3     
  12 C12            0.8407    -0.5813     1.1616 C.3     
  13 C13            0.0021    -0.0041     0.0020 C.3     
  14 C14           -1.3997    -0.5562    -0.0103 C.3     
  15 C15           -1.9149    -0.8128     1.4181 C.3     
  16 C16            2.2408    -0.0395     0.8381 C.3     
  17 C17            2.3205    -0.1621    -0.7089 C.3     
  18 C18            0.8738    -0.4210    -1.2035 C.3     
  19 O19           -3.4209     0.1679     7.5834 O.3     
  20 O20            0.6847    -1.8026    -1.4926 O.3     
  21 C21           -4.8262    -0.0683     7.6901 C.3     
  22 C22           -5.2402     0.0099     9.1370 C.2     
  23 O23           -6.5242    -0.1804     9.4789 O.3     
  24 O24           -4.4164     0.2439     9.9893 O.2     
  25 H25            0.9787     1.9049    -0.2139 H       
  26 H26           -0.7208     1.8847    -0.7425 H       
  27 H27           -0.3287     1.8805     0.9937 H       
  28 H28           -4.7483    -0.3047     5.3705 H       
  29 H29           -0.9018     0.5510     7.0132 H       
  30 H30           -3.7711    -0.3496     3.1241 H       
  31 H31            0.7770     1.4489     5.3732 H       
  32 H32            1.0426    -0.2986     5.1751 H       
  33 H33            0.6430     1.7857     3.0050 H       
  34 H34            2.0373     0.6977     3.2600 H       
  35 H35            0.3167    -1.2149     3.1010 H       
  36 H36           -1.2996     1.1301     2.0675 H       
  37 H37            0.8807    -1.6865     1.0418 H       
  38 H38           -2.0705     0.1505    -0.5167 H       
  39 H39           -1.4276    -1.4978    -0.5741 H       
  40 H40           -1.7377    -1.8584     1.6892 H       
  41 H41           -2.9934    -0.6280     1.4479 H       
  42 H42            2.3524     0.9928     1.1590 H       
  43 H43            3.0039    -0.6666     1.3057 H       
  44 H44            2.7056     0.7617    -1.1393 H       
  45 H45            2.9609    -0.9994    -0.9862 H       
  46 H46            0.6379     0.2002    -2.0589 H       
  47 H47            1.2604    -2.1404    -2.1923 H       
  48 H48           -5.3659     0.6852     7.1165 H       
  49 H49           -5.0589    -1.0586     7.2986 H       
  50 H50           -6.7416    -0.1205    10.4192 H       
@<TRIPOS>BOND
   1    1   13 1
   2    1   25 1
   3    1   26 1
   4    1   27 1
   5    2    3 ar
   6    2    7 ar
   7    2   28 1
   8    3    4 ar
   9    3   19 1
  10    4    5 ar
  11    4   29 1
  12    5    6 ar
  13    5    8 1
  14    6    7 ar
  15    6   11 1
  16    7   30 1
  17    8    9 1
  18    8   31 1
  19    8   32 1
  20    9   10 1
  21    9   33 1
  22    9   34 1
  23   10   11 1
  24   10   12 1
  25   10   35 1
  26   11   15 1
  27   11   36 1
  28   12   13 1
  29   12   16 1
  30   12   37 1
  31   13   14 1
  32   13   18 1
  33   14   15 1
  34   14   38 1
  35   14   39 1
  36   15   40 1
  37   15   41 1
  38   16   17 1
  39   16   42 1
  40   16   43 1
  41   17   18 1
  42   17   44 1
  43   17   45 1
  44   18   20 1
  45   18   46 1
  46   19   21 1
  47   20   47 1
  48   21   22 1
  49   21   48 1
  50   21   49 1
  51   22   23 1
  52   22   24 2
  53   23   50 1

#	End of record

