#	Name: ASD01122020
#	Creating user name:	WinNT
#	Creation time:	15. 06. 2019 18:59

#	Modifying user name:	WinNT
#	Modification time:	15. 06. 2019 18:59

#	Program:	/corina/corina34_cracker 3.40 0067  02.08.2006

@<TRIPOS>MOLECULE
ASD01122020
  50   52    0    0    0
SMALL
NO_CHARGES


@<TRIPOS>ATOM
   1 O1            -0.6458     1.3207     0.6144 O.3     
   2 C2            -0.4022     0.0101     0.4414 C.2     
   3 C3             0.9219    -0.2022     0.5637 C.2     
   4 C4             1.5184     1.0485     0.8259 C.2     
   5 C5             0.5137     1.9643     0.8491 C.2     
   6 P6            -1.6502    -1.2615     0.1006 P.3     
   7 O7            -3.0879    -0.5637    -0.0949 O.3     
   8 O8            -1.2529    -2.0574    -1.2414 O.3     
   9 O9            -1.7119    -2.2089     1.2360 O.2     
  10 S10            0.3941     5.9298     1.0313 S.3     
  11 C11            1.6207     5.1958     2.0594 C.2     
  12 N12            1.5793     3.9062     1.9296 N.2     
  13 C13            0.6674     3.4142     1.0901 C.2     
  14 C14           -0.1030     4.3328     0.4775 C.2     
  15 C15           -1.2022     4.0445    -0.5122 C.3     
  16 C16           -2.5268     3.8693     0.2333 C.3     
  17 C17           -2.9168     5.1912     0.8976 C.3     
  18 C18           -3.6177     3.4543    -0.7559 C.3     
  19 N19            2.4954     5.8891     2.8800 N.pl3   
  20 C20           -4.2921    -1.3059    -0.2974 C.3     
  21 C21           -5.4836    -0.3466    -0.3265 C.3     
  22 C22           -0.2709    -2.9803    -1.0664 C.ar    
  23 C23           -0.5855    -4.2510    -0.6069 C.ar    
  24 C24            0.4151    -5.1878    -0.4298 C.ar    
  25 C25            1.7296    -4.8586    -0.7101 C.ar    
  26 C26            2.0449    -3.5929    -1.1677 C.ar    
  27 C27            1.0470    -2.6552    -1.3525 C.ar    
  28 Br28          -0.0123    -6.9201     0.1965 Br      
  29 H29            1.4308    -1.1509     0.4779 H       
  30 H30            2.5700     1.2415     0.9787 H       
  31 H31           -1.2869     4.8748    -1.2133 H       
  32 H32           -0.9690     3.1304    -1.0582 H       
  33 H33           -2.4153     3.0985     0.9958 H       
  34 H34           -3.0282     5.9621     0.1350 H       
  35 H35           -3.8604     5.0665     1.4287 H       
  36 H36           -2.1396     5.4869     1.6023 H       
  37 H37           -3.3399     2.5125    -1.2292 H       
  38 H38           -4.5614     3.3295    -0.2248 H       
  39 H39           -3.7292     4.2251    -1.5184 H       
  40 H40            2.4598     6.8577     2.9183 H       
  41 H41            3.1434     5.4060     3.4162 H       
  42 H42           -4.2338    -1.8417    -1.2449 H       
  43 H43           -4.4201    -2.0197     0.5163 H       
  44 H44           -6.4022    -0.9127    -0.4809 H       
  45 H45           -5.5420     0.1891     0.6210 H       
  46 H46           -5.3556     0.3672    -1.1402 H       
  47 H47           -1.6114    -4.5077    -0.3874 H       
  48 H48            2.5105    -5.5916    -0.5709 H       
  49 H49            3.0715    -3.3382    -1.3854 H       
  50 H50            1.2935    -1.6681    -1.7149 H       
@<TRIPOS>BOND
   1    1    2 1
   2    1    5 1
   3    2    3 2
   4    2    6 1
   5    3    4 1
   6    3   29 1
   7    4    5 2
   8    4   30 1
   9    5   13 1
  10    6    7 1
  11    6    8 1
  12    6    9 2
  13    7   20 1
  14    8   22 1
  15   10   11 1
  16   10   14 1
  17   11   12 2
  18   11   19 1
  19   12   13 1
  20   13   14 2
  21   14   15 1
  22   15   16 1
  23   15   31 1
  24   15   32 1
  25   16   17 1
  26   16   18 1
  27   16   33 1
  28   17   34 1
  29   17   35 1
  30   17   36 1
  31   18   37 1
  32   18   38 1
  33   18   39 1
  34   19   40 1
  35   19   41 1
  36   20   21 1
  37   20   42 1
  38   20   43 1
  39   21   44 1
  40   21   45 1
  41   21   46 1
  42   22   23 ar
  43   22   27 ar
  44   23   24 ar
  45   23   47 1
  46   24   25 ar
  47   24   28 1
  48   25   26 ar
  49   25   48 1
  50   26   27 ar
  51   26   49 1
  52   27   50 1

#	End of record

