#	Name: ASD01940596
#	Creating user name:	WinNT
#	Creation time:	15. 06. 2019 20:12

#	Modifying user name:	WinNT
#	Modification time:	15. 06. 2019 20:12

#	Program:	/corina/corina34_cracker 3.40 0067  02.08.2006

@<TRIPOS>MOLECULE
ASD01940596
  60   63    0    0    0
SMALL
NO_CHARGES


@<TRIPOS>ATOM
   1 C1             0.4316     1.4972    -0.8862 C.ar    
   2 C2            -0.5234     1.6396    -1.8833 C.ar    
   3 C3            -0.5564     2.7968    -2.6507 C.ar    
   4 C4             0.3603     3.8050    -2.4219 C.ar    
   5 C5             1.3117     3.6653    -1.4299 C.ar    
   6 C6             1.3496     2.5108    -0.6596 C.ar    
   7 N7            -1.4514     0.6185    -2.1153 N.am    
   8 C8            -1.9689    -0.0702    -1.0788 C.2     
   9 O9            -1.5631     0.1314     0.0463 O.2     
  10 O10            2.2855     2.3749     0.3159 O.3     
  11 C11            3.2290     3.3469     0.4354 C.ar    
  12 C12            4.4732     3.1833    -0.1560 C.ar    
  13 C13            5.4348     4.1715    -0.0354 C.ar    
  14 C14            5.1599     5.3269     0.6758 C.ar    
  15 C15            3.9176     5.4983     1.2706 C.ar    
  16 C16            2.9457     4.5082     1.1457 C.ar    
  17 N17            3.6399     6.6668     1.9903 N.pl3   
  18 C18            4.3650     7.8349     1.7339 C.ar    
  19 C19            4.9941     8.0086     0.5083 C.ar    
  20 C20            5.7096     9.1634     0.2578 C.ar    
  21 C21            5.8007    10.1471     1.2261 C.ar    
  22 C22            5.1761     9.9785     2.4489 C.ar    
  23 C23            4.4527     8.8280     2.7040 C.ar    
  24 F24            3.8375     8.6658     3.8958 F       
  25 I25            6.8879    11.8958     0.8403 I       
  26 N26            1.6853     4.6799     1.7404 N.am    
  27 S27            1.1885     3.6516     2.9396 S.o2    
  28 F28            6.6451     4.0079    -0.6131 F       
  29 O29           -0.0818     4.1552     3.3293 O.2     
  30 O30            1.3195     2.3572     2.3679 O.2     
  31 C31            2.4012     3.8862     4.2682 C.3     
  32 C32            2.2336     3.0439     5.5344 C.3     
  33 C33            3.3672     2.7348     4.5544 C.3     
  34 C34           -3.0518    -1.0907    -1.3176 C.3     
  35 C35           -2.5296    -2.1774    -2.2595 C.3     
  36 C36           -3.4593    -1.7231     0.0146 C.3     
  37 H37            0.4566     0.6003    -0.2851 H       
  38 H38           -1.2989     2.9084    -3.4270 H       
  39 H39            0.3332     4.7039    -3.0200 H       
  40 H40            2.0271     4.4549    -1.2537 H       
  41 H41           -1.7223     0.4062    -3.0222 H       
  42 H42            4.6920     2.2831    -0.7112 H       
  43 H43            5.9130     6.0955     0.7683 H       
  44 H44            2.9447     6.6660     2.6668 H       
  45 H45            4.9244     7.2412    -0.2484 H       
  46 H46            6.1989     9.2984    -0.6955 H       
  47 H47            5.2497    10.7480     3.2031 H       
  48 H48            1.1055     5.4008     1.4488 H       
  49 H49            2.7792     4.9018     4.3856 H       
  50 H50            2.5019     3.5053     6.4849 H       
  51 H51            1.3948     2.3488     5.5692 H       
  52 H52            3.2740     1.8362     3.9445 H       
  53 H53            4.3811     2.9927     4.8601 H       
  54 H54           -3.9166    -0.6040    -1.7684 H       
  55 H55           -2.2393    -1.7269    -3.2086 H       
  56 H56           -1.6648    -2.6641    -1.8087 H       
  57 H57           -3.3129    -2.9155    -2.4323 H       
  58 H58           -3.8313    -0.9489     0.6856 H       
  59 H59           -4.2426    -2.4612    -0.1582 H       
  60 H60           -2.5945    -2.2098     0.4654 H       
@<TRIPOS>BOND
   1    1    2 ar
   2    1    6 ar
   3    1   37 1
   4    2    3 ar
   5    2    7 1
   6    3    4 ar
   7    3   38 1
   8    4    5 ar
   9    4   39 1
  10    5    6 ar
  11    5   40 1
  12    6   10 1
  13    7    8 am
  14    7   41 1
  15    8    9 2
  16    8   34 1
  17   10   11 1
  18   11   12 ar
  19   11   16 ar
  20   12   13 ar
  21   12   42 1
  22   13   14 ar
  23   13   28 1
  24   14   15 ar
  25   14   43 1
  26   15   16 ar
  27   15   17 1
  28   16   26 1
  29   17   18 1
  30   17   44 1
  31   18   19 ar
  32   18   23 ar
  33   19   20 ar
  34   19   45 1
  35   20   21 ar
  36   20   46 1
  37   21   22 ar
  38   21   25 1
  39   22   23 ar
  40   22   47 1
  41   23   24 1
  42   26   27 am
  43   26   48 1
  44   27   29 2
  45   27   30 2
  46   27   31 1
  47   31   32 1
  48   31   33 1
  49   31   49 1
  50   32   33 1
  51   32   50 1
  52   32   51 1
  53   33   52 1
  54   33   53 1
  55   34   35 1
  56   34   36 1
  57   34   54 1
  58   35   55 1
  59   35   56 1
  60   35   57 1
  61   36   58 1
  62   36   59 1
  63   36   60 1

#	End of record

