#	Name: ASD01028591
#	Creating user name:	WinNT
#	Creation time:	15. 06. 2019 18:57

#	Modifying user name:	WinNT
#	Modification time:	15. 06. 2019 18:57

#	Program:	/corina/corina34_cracker 3.40 0067  02.08.2006

@<TRIPOS>MOLECULE
ASD01028591
  48   53    0    0    0
SMALL
NO_CHARGES


@<TRIPOS>ATOM
   1 N1            -0.0169     1.3921     0.0097 N.2     
   2 N2             0.0021    -0.0041     0.0020 N.pl3   
   3 C3             1.1073     2.0742     0.0026 C.2     
   4 C4             2.3535     1.4122    -0.0133 C.2     
   5 C5             2.4037     0.0541    -0.0211 C.2     
   6 C6             1.2006    -0.6771    -0.0130 C.2     
   7 N7             0.9142    -1.9688    -0.0171 N.2     
   8 N8            -0.3641    -2.1207    -0.0052 N.2     
   9 C9            -0.9587    -0.9537     0.0057 C.2     
  10 C10           -2.4463    -0.7136     0.0210 C.3     
  11 N11           -2.9152    -0.6425     1.4071 N.pl3   
  12 C12           -4.2593    -0.4264     1.6745 C.ar    
  13 C13           -5.1758    -0.2751     0.6471 C.ar    
  14 C14           -6.5150    -0.0599     0.9438 C.ar    
  15 N15           -6.9459     0.0061     2.1822 N.ar    
  16 C16           -6.1163    -0.1313     3.2218 C.ar    
  17 C17           -4.7368    -0.3597     3.0069 C.ar    
  18 C18           -6.5925    -0.0588     4.5442 C.ar    
  19 C19           -5.6922    -0.2078     5.5661 C.ar    
  20 C20           -4.3409    -0.4253     5.2775 C.ar    
  21 N21           -3.9080    -0.4981     4.0427 N.ar    
  22 O22           -6.1110    -0.1440     6.8570 O.3     
  23 C23            1.0650     3.5568     0.0110 C.ar    
  24 C24           -5.1169    -0.3082     7.8704 C.3     
  25 C25           -0.1549     4.2108     0.0262 C.ar    
  26 C26            2.2579     4.2867     0.0093 C.ar    
  27 C27           -0.2007     5.6174     0.0337 C.ar    
  28 C28            2.2255     5.6502     0.0169 C.ar    
  29 C29            1.0066     6.3271     0.0260 C.ar    
  30 S30            0.6252     8.0466     0.0372 S.3     
  31 C31           -1.0459     7.7019     0.0425 C.2     
  32 N32           -1.2659     6.4419     0.0482 N.2     
  33 H33            3.2686     1.9856    -0.0197 H       
  34 H34            3.3545    -0.4579    -0.0336 H       
  35 H35           -2.6681     0.2253    -0.4862 H       
  36 H36           -2.9517    -1.5319    -0.4920 H       
  37 H37           -2.2859    -0.7464     2.1379 H       
  38 H38           -4.8497    -0.3241    -0.3813 H       
  39 H39           -7.2207     0.0567     0.1346 H       
  40 H40           -7.6395     0.1102     4.7479 H       
  41 H41           -3.6395    -0.5414     6.0905 H       
  42 H42           -5.5839    -0.2356     8.8526 H       
  43 H43           -4.6466    -1.2856     7.7630 H       
  44 H44           -4.3620     0.4714     7.7685 H       
  45 H45           -1.0724     3.6410     0.0319 H       
  46 H46            3.2062     3.7699     0.0023 H       
  47 H47            3.1498     6.2089     0.0156 H       
  48 H48           -1.8211     8.4538     0.0506 H       
@<TRIPOS>BOND
   1    1    2 1
   2    1    3 2
   3    2    6 1
   4    2    9 1
   5    3    4 1
   6    3   23 1
   7    4    5 2
   8    4   33 1
   9    5    6 1
  10    5   34 1
  11    6    7 2
  12    7    8 1
  13    8    9 2
  14    9   10 1
  15   10   11 1
  16   10   35 1
  17   10   36 1
  18   11   12 1
  19   11   37 1
  20   12   13 ar
  21   12   17 ar
  22   13   14 ar
  23   13   38 1
  24   14   15 ar
  25   14   39 1
  26   15   16 ar
  27   16   17 ar
  28   16   18 ar
  29   17   21 ar
  30   18   19 ar
  31   18   40 1
  32   19   20 ar
  33   19   22 1
  34   20   21 ar
  35   20   41 1
  36   22   24 1
  37   23   25 ar
  38   23   26 ar
  39   24   42 1
  40   24   43 1
  41   24   44 1
  42   25   27 ar
  43   25   45 1
  44   26   28 ar
  45   26   46 1
  46   27   29 ar
  47   27   32 1
  48   28   29 ar
  49   28   47 1
  50   29   30 1
  51   30   31 1
  52   31   32 2
  53   31   48 1

#	End of record

