#	Name: ASD03740162
#	Creating user name:	WinNT
#	Creation time:	15. 06. 2019 20:46

#	Modifying user name:	WinNT
#	Modification time:	15. 06. 2019 20:46

#	Program:	/corina/corina34_cracker 3.40 0067  02.08.2006

@<TRIPOS>MOLECULE
ASD03740162
  65   69    0    0    0
SMALL
NO_CHARGES


@<TRIPOS>ATOM
   1 C1             0.3715     2.1897    -0.0517 C.ar    
   2 C2             0.5052     0.8061    -0.0591 C.ar    
   3 C3            -0.5955    -0.0031    -0.0426 C.ar    
   4 C4            -1.8693     0.5593    -0.0183 C.ar    
   5 C5            -2.0069     1.9607    -0.0108 C.ar    
   6 C6            -0.8657     2.7685    -0.0223 C.ar    
   7 N7            -3.1366     0.0369     0.0025 N.pl3   
   8 N8            -4.0642     1.0834     0.0228 N.2     
   9 C9            -3.4439     2.2318     0.0158 C.2     
  10 O10           -4.0283     3.4590     0.0310 O.3     
  11 C11           -3.4668    -1.3904     0.0029 C.3     
  12 C12           -3.5544    -1.8854     1.4236 C.ar    
  13 C13           -4.7609    -1.8425     2.0970 C.ar    
  14 C14           -4.8419    -2.2963     3.4000 C.ar    
  15 C15           -3.7151    -2.7935     4.0304 C.ar    
  16 C16           -2.5079    -2.8362     3.3559 C.ar    
  17 C17           -2.4295    -2.3873     2.0510 C.ar    
  18 C18           -5.4566     3.4972     0.0566 C.3     
  19 C19           -5.9277     4.9528     0.0707 C.3     
  20 C20           -7.4569     4.9936     0.0981 C.3     
  21 Cl21          -3.8159    -3.3632     5.6671 Cl      
  22 N22           -7.9093     6.3912     0.1116 N.3     
  23 C23           -9.3519     6.4872    -0.2297 C.3     
  24 C24           -7.8185     6.9669     1.4781 C.3     
  25 C25           -8.7865     8.1694     1.4587 C.3     
  26 C26           -9.7953     7.8538     0.3352 C.3     
  27 C27           -9.5449     6.4490    -1.7470 C.3     
  28 Cl28           1.7894     3.1911    -0.0730 Cl      
  29 N29          -10.9805     6.4221    -2.0576 N.3     
  30 C30          -11.2211     6.7553    -3.4735 C.3     
  31 C31          -12.0049     5.5792    -4.0931 C.3     
  32 C32          -12.6574     4.9046    -2.8578 C.3     
  33 C33          -11.5570     5.0886    -1.7832 C.3     
  34 H34            1.4911     0.3654    -0.0783 H       
  35 H35           -0.4780    -1.0767    -0.0489 H       
  36 H36           -0.9619     3.8442    -0.0163 H       
  37 H37           -4.4249    -1.5418    -0.4944 H       
  38 H38           -2.6910    -1.9429    -0.5272 H       
  39 H39           -5.6403    -1.4540     1.6050 H       
  40 H40           -5.7845    -2.2624     3.9262 H       
  41 H41           -1.6280    -3.2242     3.8474 H       
  42 H42           -1.4871    -2.4205     1.5244 H       
  43 H43           -5.8493     2.9967    -0.8285 H       
  44 H44           -5.8176     2.9898     0.9512 H       
  45 H45           -5.5350     5.4532     0.9558 H       
  46 H46           -5.5667     5.4602    -0.8239 H       
  47 H47           -7.8497     4.4932    -0.7870 H       
  48 H48           -7.8180     4.4862     0.9927 H       
  49 H49           -9.9093     5.6791     0.2440 H       
  50 H50           -8.1362     6.2352     2.2209 H       
  51 H51           -6.8014     7.3010     1.6831 H       
  52 H52           -9.3008     8.2569     2.4157 H       
  53 H53           -8.2446     9.0880     1.2339 H       
  54 H54           -9.7485     8.6175    -0.4411 H       
  55 H55          -10.8048     7.7863     0.7407 H       
  56 H56           -9.0932     7.3350    -2.1932 H       
  57 H57           -9.0689     5.5557    -2.1515 H       
  58 H58          -11.8086     7.6707    -3.5444 H       
  59 H59          -10.2704     6.8812    -3.9916 H       
  60 H60          -12.7678     5.9442    -4.7808 H       
  61 H61          -11.3289     4.8885    -4.5972 H       
  62 H62          -13.5740     5.4198    -2.5703 H       
  63 H63          -12.8476     3.8478    -3.0449 H       
  64 H64          -10.7940     4.3169    -1.8854 H       
  65 H65          -11.9934     5.0620    -0.7847 H       
@<TRIPOS>BOND
   1    1    2 ar
   2    1   28 1
   3    1    6 ar
   4    2    3 ar
   5    2   34 1
   6    3    4 ar
   7    3   35 1
   8    4    5 ar
   9    4    7 1
  10    5    6 ar
  11    5    9 1
  12    6   36 1
  13    7    8 1
  14    7   11 1
  15    8    9 2
  16    9   10 1
  17   10   18 1
  18   11   12 1
  19   11   37 1
  20   11   38 1
  21   12   13 ar
  22   12   17 ar
  23   13   14 ar
  24   13   39 1
  25   14   15 ar
  26   14   40 1
  27   15   16 ar
  28   15   21 1
  29   16   17 ar
  30   16   41 1
  31   17   42 1
  32   18   19 1
  33   18   43 1
  34   18   44 1
  35   19   20 1
  36   19   45 1
  37   19   46 1
  38   20   22 1
  39   20   47 1
  40   20   48 1
  41   22   23 1
  42   22   24 1
  43   23   27 1
  44   23   26 1
  45   23   49 1
  46   24   25 1
  47   24   50 1
  48   24   51 1
  49   25   26 1
  50   25   52 1
  51   25   53 1
  52   26   54 1
  53   26   55 1
  54   27   29 1
  55   27   56 1
  56   27   57 1
  57   29   30 1
  58   29   33 1
  59   30   31 1
  60   30   58 1
  61   30   59 1
  62   31   32 1
  63   31   60 1
  64   31   61 1
  65   32   33 1
  66   32   62 1
  67   32   63 1
  68   33   64 1
  69   33   65 1

#	End of record

