#	Name: ASD03200073
#	Creating user name:	WinNT
#	Creation time:	15. 06. 2019 20:34

#	Modifying user name:	WinNT
#	Modification time:	15. 06. 2019 20:34

#	Program:	/corina/corina34_cracker 3.40 0067  02.08.2006

@<TRIPOS>MOLECULE
ASD03200073
  30   32    0    0    0
SMALL
NO_CHARGES


@<TRIPOS>ATOM
   1 C1             0.0056     1.3763     0.4289 C.ar    
   2 N2             4.7942     1.5011    -0.0349 N.ar    
   3 C3             4.8008     5.7683    -0.0119 C.2     
   4 O4             3.6348     6.4432    -0.0109 O.3     
   5 C5             4.7992     4.2904    -0.0198 C.ar    
   6 C6             5.9742     2.1123    -0.1457 C.ar    
   7 C7             7.1665     1.3738    -0.2650 C.ar    
   8 C8             8.3557     2.0259    -0.3761 C.ar    
   9 C9             8.4161     3.4179    -0.3736 C.ar    
  10 C10            7.2821     4.1662    -0.2594 C.ar    
  11 C11            6.0421     3.5286    -0.1442 C.ar    
  12 C12            3.6182     3.5689     0.0905 C.ar    
  13 C13            3.6643     2.1668     0.0784 C.ar    
  14 C14            2.3957     1.4082     0.1970 C.ar    
  15 C15            2.4108     0.0144     0.1879 C.ar    
  16 C16            1.2252    -0.6871     0.2992 C.ar    
  17 C17            0.0242    -0.0063     0.4195 C.ar    
  18 C18            1.1840     2.0864     0.3183 C.ar    
  19 F19            1.2372    -2.0380     0.2907 F       
  20 O20            5.8533     6.3745    -0.0063 O.2     
  21 H21           -0.9337     1.9018     0.5185 H       
  22 H22            3.6865     7.4088    -0.0057 H       
  23 H23            7.1377     0.2942    -0.2679 H       
  24 H24            9.2679     1.4550    -0.4674 H       
  25 H25            9.3732     3.9103    -0.4628 H       
  26 H26            7.3408     5.2446    -0.2579 H       
  27 H27            2.6728     4.0823     0.1851 H       
  28 H28            3.3468    -0.5161     0.0938 H       
  29 H29           -0.9004    -0.5576     0.5067 H       
  30 H30            1.1673     3.1662     0.3255 H       
@<TRIPOS>BOND
   1    1   17 ar
   2    1   18 ar
   3    1   21 1
   4    2    6 ar
   5    2   13 ar
   6    3    5 1
   7    3    4 1
   8    3   20 2
   9    4   22 1
  10    5   11 ar
  11    5   12 ar
  12    6    7 ar
  13    6   11 ar
  14    7    8 ar
  15    7   23 1
  16    8   24 1
  17    8    9 ar
  18    9   25 1
  19    9   10 ar
  20   10   26 1
  21   10   11 ar
  22   12   13 ar
  23   12   27 1
  24   13   14 1
  25   14   15 ar
  26   14   18 ar
  27   15   28 1
  28   15   16 ar
  29   16   19 1
  30   16   17 ar
  31   17   29 1
  32   18   30 1

#	End of record

