#	Name: ASD04882580
#	Creating user name:	WinNT
#	Creation time:	15. 06. 2019 20:55

#	Modifying user name:	WinNT
#	Modification time:	15. 06. 2019 20:55

#	Program:	/corina/corina34_cracker 3.40 0067  02.08.2006

@<TRIPOS>MOLECULE
ASD04882580
  77   82    0    0    0
SMALL
NO_CHARGES


@<TRIPOS>ATOM
   1 C1            -0.0215     1.4013    -0.0093 C.ar    
   2 C2            -0.0116     0.0036    -0.0051 C.ar    
   3 C3            -1.2094    -0.7019    -0.0164 C.ar    
   4 C4            -2.4097    -0.0268    -0.0317 C.ar    
   5 C5            -2.4268     1.3708    -0.0363 C.ar    
   6 C6            -1.2240     2.0826    -0.0188 C.ar    
   7 N7             1.1997    -0.6831     0.0098 N.3     
   8 C8             1.3068    -1.5361     1.2016 C.3     
   9 C9             1.3723    -1.4733    -1.2172 C.3     
  10 C10            2.7462    -2.1475    -1.1975 C.3     
  11 N11            2.8533    -3.0006    -0.0057 N.3     
  12 C12            2.6807    -2.2104     1.2213 C.3     
  13 C13           -3.7127     2.0937    -0.0531 C.2     
  14 O14           -3.7266     3.3096    -0.0572 O.2     
  15 N15           -4.8720     1.4065    -0.0640 N.am    
  16 N16            1.1864     2.1110     0.0021 N.am    
  17 C17            4.0683    -3.6894     0.0093 C.ar    
  18 C18            4.0810    -5.0782     0.0134 C.ar    
  19 C19            5.2843    -5.7562     0.0278 C.ar    
  20 C20            6.4753    -5.0539     0.0385 C.ar    
  21 C21            6.4662    -3.6709     0.0345 C.ar    
  22 C22            5.2669    -2.9868     0.0143 C.ar    
  23 C23            2.7835    -5.8445     0.0027 C.3     
  24 C24            1.2294     3.3599     0.5068 C.2     
  25 C25            2.5098     4.0698     0.5995 C.2     
  26 C26            3.7311     3.5988     0.2174 C.2     
  27 N27            4.6277     4.5576     0.4707 N.2     
  28 C28            4.0138     5.5881     0.9875 C.2     
  29 O29            2.7069     5.3214     1.0755 O.3     
  30 C30           -6.1490     2.1244    -0.0807 C.3     
  31 O31            0.2060     3.8988     0.8855 O.2     
  32 C32            4.6731     6.8751     1.4119 C.3     
  33 C33            5.7520     6.7929     2.4936 C.3     
  34 C34            6.1445     7.0708     1.0411 C.3     
  35 C35           -7.2410     1.2366     0.5195 C.3     
  36 C36           -8.5746     1.9864     0.5020 C.3     
  37 C37           -8.9413     2.3413    -0.9403 C.3     
  38 C38           -7.8493     3.2290    -1.5405 C.3     
  39 C39           -6.5157     2.4793    -1.5231 C.3     
  40 O40           -8.4577     3.1843     1.2724 O.3     
  41 H41           -1.1986    -1.7818    -0.0136 H       
  42 H42           -3.3385    -0.5777    -0.0404 H       
  43 H43           -1.2341     3.1625    -0.0223 H       
  44 H44            1.1882    -0.9263     2.0972 H       
  45 H45            0.5281    -2.2983     1.1745 H       
  46 H46            0.5943    -2.2347    -1.2718 H       
  47 H47            1.3015    -0.8175    -2.0850 H       
  48 H48            2.8648    -2.7574    -2.0931 H       
  49 H49            3.5250    -1.3854    -1.1704 H       
  50 H50            3.4587    -1.4489     1.2759 H       
  51 H51            2.7516    -2.8661     2.0891 H       
  52 H52           -4.8609     0.4366    -0.0608 H       
  53 H53            1.9917     1.7034    -0.3533 H       
  54 H54            5.2950    -6.8362     0.0310 H       
  55 H55            7.4147    -5.5865     0.0504 H       
  56 H56            7.3982    -3.1253     0.0432 H       
  57 H57            5.2605    -1.9068     0.0108 H       
  58 H58            2.4808    -6.0322    -1.0274 H       
  59 H59            2.9180    -6.7941     0.5207 H       
  60 H60            2.0130    -5.2615     0.5073 H       
  61 H61            3.9364     2.6290    -0.2113 H       
  62 H62           -6.0598     3.0381     0.5069 H       
  63 H63            4.0311     7.7560     1.4073 H       
  64 H64            5.8201     7.6199     3.2003 H       
  65 H65            5.9850     5.8080     2.8982 H       
  66 H66            6.6357     6.2687     0.4902 H       
  67 H67            6.4708     8.0807     0.7923 H       
  68 H68           -7.3302     0.3229    -0.0681 H       
  69 H69           -6.9797     0.9838     1.5470 H       
  70 H70           -9.3526     1.3539     0.9296 H       
  71 H71           -9.0305     1.4275    -1.5279 H       
  72 H72           -9.8914     2.8754    -0.9528 H       
  73 H73           -8.1105     3.4819    -2.5681 H       
  74 H74           -7.7601     4.1428    -0.9529 H       
  75 H75           -5.7377     3.1118    -1.9507 H       
  76 H76           -6.6048     1.5656    -2.1107 H       
  77 H77           -9.2678     3.7113     1.3053 H       
@<TRIPOS>BOND
   1    1    2 ar
   2    1   16 1
   3    1    6 ar
   4    2    3 ar
   5    2    7 1
   6    3    4 ar
   7    3   41 1
   8    4    5 ar
   9    4   42 1
  10    5    6 ar
  11    5   13 1
  12    6   43 1
  13    7    8 1
  14    7    9 1
  15    8   12 1
  16    8   44 1
  17    8   45 1
  18    9   10 1
  19    9   46 1
  20    9   47 1
  21   10   11 1
  22   10   48 1
  23   10   49 1
  24   11   12 1
  25   11   17 1
  26   12   50 1
  27   12   51 1
  28   13   14 2
  29   13   15 am
  30   15   30 1
  31   15   52 1
  32   16   24 am
  33   16   53 1
  34   17   18 ar
  35   17   22 ar
  36   18   19 ar
  37   18   23 1
  38   19   20 ar
  39   19   54 1
  40   20   21 ar
  41   20   55 1
  42   21   22 ar
  43   21   56 1
  44   22   57 1
  45   23   58 1
  46   23   59 1
  47   23   60 1
  48   24   25 1
  49   24   31 2
  50   25   26 2
  51   25   29 1
  52   26   27 1
  53   26   61 1
  54   27   28 2
  55   28   29 1
  56   28   32 1
  57   30   35 1
  58   30   39 1
  59   30   62 1
  60   32   33 1
  61   32   34 1
  62   32   63 1
  63   33   34 1
  64   33   64 1
  65   33   65 1
  66   34   66 1
  67   34   67 1
  68   35   36 1
  69   35   68 1
  70   35   69 1
  71   36   37 1
  72   36   40 1
  73   36   70 1
  74   37   38 1
  75   37   71 1
  76   37   72 1
  77   38   39 1
  78   38   73 1
  79   38   74 1
  80   39   75 1
  81   39   76 1
  82   40   77 1

#	End of record

