#	Name: ASD02198030
#	Creating user name:	WinNT
#	Creation time:	15. 06. 2019 20:18

#	Modifying user name:	WinNT
#	Modification time:	15. 06. 2019 20:18

#	Program:	/corina/corina34_cracker 3.40 0067  02.08.2006

@<TRIPOS>MOLECULE
ASD02198030
  50   52    0    0    0
SMALL
NO_CHARGES


@<TRIPOS>ATOM
   1 N1            -0.3363     1.3424    -0.1980 N.pl3   
   2 C2            -0.1800     0.4736     0.8553 C.2     
   3 C3            -1.0423    -0.5638     1.1495 C.2     
   4 C4            -2.2383    -0.8568     0.3582 C.2     
   5 S5             1.1087     0.5274     1.9702 S.3     
   6 C6             0.4882    -0.8564     2.8558 C.2     
   7 C7            -0.6696    -1.3073     2.2690 C.2     
   8 C8             1.0902    -1.4227     3.9960 C.2     
   9 O9             1.8486    -2.3701     3.8780 O.2     
  10 C10            0.8024    -0.8680     5.3373 C.ar    
  11 N11           -1.3941    -2.3884     2.7425 N.pl3   
  12 C12            0.5290     2.4307    -0.3406 C.ar    
  13 C13            0.1284     3.6967     0.0673 C.ar    
  14 O14           -2.1711    -1.6218    -0.5851 O.2     
  15 C15            0.9859     4.7699    -0.0750 C.ar    
  16 C16            2.2421     4.5852    -0.6229 C.ar    
  17 C17            2.6441     3.3262    -1.0300 C.ar    
  18 C18            1.7938     2.2477    -0.8853 C.ar    
  19 C19           -0.1547     0.1363     5.4894 C.ar    
  20 C20           -1.2406     3.8990     0.6640 C.3     
  21 C21            1.4829    -1.3511     6.4560 C.ar    
  22 C22            1.2104    -0.8301     7.7036 C.ar    
  23 C23            0.2635     0.1699     7.8476 C.ar    
  24 C24           -0.4186     0.6495     6.7420 C.ar    
  25 Br25          -0.1047     0.8785     9.5617 Br      
  26 O26           -3.4149    -0.2786     0.6751 O.3     
  27 C27           -4.5591    -0.6153    -0.1531 C.3     
  28 C28           -5.7941     0.1309     0.3556 C.3     
  29 C29            2.2327     0.8761    -1.3292 C.3     
  30 H30           -1.0447     1.1981    -0.8447 H       
  31 H31           -1.0896    -2.8698     3.5276 H       
  32 H32           -2.2061    -2.6641     2.2891 H       
  33 H33            0.6749     5.7545     0.2416 H       
  34 H34            2.9106     5.4262    -0.7335 H       
  35 H35            3.6259     3.1855    -1.4575 H       
  36 H36           -0.6873     0.5111     4.6278 H       
  37 H37           -1.1890     3.7667     1.7448 H       
  38 H38           -1.5905     4.9062     0.4376 H       
  39 H39           -1.9324     3.1704     0.2414 H       
  40 H40            2.2211    -2.1315     6.3450 H       
  41 H41            1.7363    -1.2031     8.5700 H       
  42 H42           -1.1558     1.4299     6.8604 H       
  43 H43           -4.3588    -0.3256    -1.1846 H       
  44 H44           -4.7384    -1.6894    -0.1057 H       
  45 H45           -6.6530    -0.1219    -0.2661 H       
  46 H46           -5.9944    -0.1589     1.3871 H       
  47 H47           -5.6148     1.2050     0.3082 H       
  48 H48            2.7638     0.3833    -0.5148 H       
  49 H49            1.3583     0.2855    -1.6025 H       
  50 H50            2.8935     0.9674    -2.1913 H       
@<TRIPOS>BOND
   1    1    2 1
   2    1   12 1
   3    1   30 1
   4    2    3 2
   5    2    5 1
   6    3    4 1
   7    3    7 1
   8    4   14 2
   9    4   26 1
  10    5    6 1
  11    6    7 2
  12    6    8 1
  13    7   11 1
  14    8    9 2
  15    8   10 1
  16   10   21 ar
  17   10   19 ar
  18   11   31 1
  19   11   32 1
  20   12   13 ar
  21   12   18 ar
  22   13   15 ar
  23   13   20 1
  24   15   16 ar
  25   15   33 1
  26   16   17 ar
  27   16   34 1
  28   17   18 ar
  29   17   35 1
  30   18   29 1
  31   19   24 ar
  32   19   36 1
  33   20   37 1
  34   20   38 1
  35   20   39 1
  36   21   22 ar
  37   21   40 1
  38   22   23 ar
  39   22   41 1
  40   23   24 ar
  41   23   25 1
  42   24   42 1
  43   26   27 1
  44   27   28 1
  45   27   43 1
  46   27   44 1
  47   28   45 1
  48   28   46 1
  49   28   47 1
  50   29   48 1
  51   29   49 1
  52   29   50 1

#	End of record

