#	Name: ASD00069386
#	Creating user name:	WinNT
#	Creation time:	15. 06. 2019 18:29

#	Modifying user name:	WinNT
#	Modification time:	15. 06. 2019 18:29

#	Program:	/corina/corina34_cracker 3.40 0067  02.08.2006

@<TRIPOS>MOLECULE
ASD00069386
  45   47    0    0    0
SMALL
NO_CHARGES


@<TRIPOS>ATOM
   1 C1            -0.0168     1.3912     0.0097 C.ar    
   2 C2             0.0021    -0.0041     0.0020 C.ar    
   3 N3             1.1731    -0.6338    -0.0125 N.ar    
   4 C4             2.3073     0.0500    -0.0197 C.ar    
   5 N5             2.3207     1.3748    -0.0127 N.ar    
   6 C6             1.1900     2.0673     0.0018 C.ar    
   7 Cl7            1.2237     3.8029     0.0102 Cl      
   8 N8            -1.1823    -0.7230     0.0099 N.3     
   9 C9            -0.9190    -2.1783    -0.0005 C.3     
  10 C10           -1.9806    -0.4471    -1.2119 C.3     
  11 C11           -2.9363    -1.6639    -1.2932 C.3     
  12 C12           -2.0456    -2.8353    -0.8194 C.3     
  13 C13           -2.8517    -3.7936     0.0596 C.3     
  14 C14           -1.4716    -3.5684    -2.0044 C.2     
  15 N15           -2.2933    -4.1689    -2.8880 N.am    
  16 C16           -1.7353    -4.8815    -4.0399 C.3     
  17 O17           -0.2702    -3.6180    -2.1630 O.2     
  18 C18           -2.5819    -5.9954    -4.6593 C.3     
  19 C19           -2.4079    -4.6664    -5.3972 C.3     
  20 O20           -3.9309    -4.3424    -0.6993 O.3     
  21 C21           -4.7509    -5.2556     0.0327 C.3     
  22 N22            3.5088    -0.6366    -0.0344 N.pl3   
  23 C23            4.7742     0.1015    -0.0425 C.3     
  24 H24           -0.9523     1.9309     0.0171 H       
  25 H25            0.0450    -2.3779    -0.4683 H       
  26 H26           -0.9272    -2.5645     1.0188 H       
  27 H27           -2.5451     0.4788    -1.1017 H       
  28 H28           -1.3368    -0.4042    -2.0905 H       
  29 H29           -3.7871    -1.5315    -0.6248 H       
  30 H30           -3.2708    -1.8238    -2.3182 H       
  31 H31           -2.2049    -4.5993     0.4068 H       
  32 H32           -3.2496    -3.2518     0.9177 H       
  33 H33           -3.2542    -4.1292    -2.7612 H       
  34 H34           -0.6539    -5.0178    -4.0297 H       
  35 H35           -2.0574    -6.8642    -5.0569 H       
  36 H36           -3.5539    -6.1979    -4.2097 H       
  37 H37           -3.2656    -3.9947    -5.4331 H       
  38 H38           -1.7690    -4.6610    -6.2803 H       
  39 H39           -4.1435    -6.0917     0.3793 H       
  40 H40           -5.1881    -4.7442     0.8902 H       
  41 H41           -5.5464    -5.6275    -0.6130 H       
  42 H42            3.5130    -1.6066    -0.0393 H       
  43 H43            4.8209     0.7329    -0.9298 H       
  44 H44            4.8375     0.7239     0.8501 H       
  45 H45            5.6058    -0.6031    -0.0538 H       
@<TRIPOS>BOND
   1    1    2 ar
   2    1    6 ar
   3    1   24 1
   4    2    3 ar
   5    2    8 1
   6    3    4 ar
   7    4    5 ar
   8    4   22 1
   9    5    6 ar
  10    6    7 1
  11    8    9 1
  12    8   10 1
  13    9   12 1
  14    9   25 1
  15    9   26 1
  16   10   11 1
  17   10   27 1
  18   10   28 1
  19   11   12 1
  20   11   29 1
  21   11   30 1
  22   12   13 1
  23   12   14 1
  24   13   20 1
  25   13   31 1
  26   13   32 1
  27   14   15 am
  28   14   17 2
  29   15   16 1
  30   15   33 1
  31   16   18 1
  32   16   19 1
  33   16   34 1
  34   18   19 1
  35   18   35 1
  36   18   36 1
  37   19   37 1
  38   19   38 1
  39   20   21 1
  40   21   39 1
  41   21   40 1
  42   21   41 1
  43   22   23 1
  44   22   42 1
  45   23   43 1
  46   23   44 1
  47   23   45 1

#	End of record

