#	Name: ASD06620042
#	Creating user name:	WinNT
#	Creation time:	15. 06. 2019 21:07

#	Modifying user name:	WinNT
#	Modification time:	15. 06. 2019 21:07

#	Program:	/corina/corina34_cracker 3.40 0067  02.08.2006

@<TRIPOS>MOLECULE
ASD06620042
  54   58    0    0    0
SMALL
NO_CHARGES


@<TRIPOS>ATOM
   1 C1            -0.7764    -3.5006    -0.5162 C.ar    
   2 C2            -0.3195    -2.2180    -0.2685 C.ar    
   3 C3             1.0601    -1.9852    -0.2202 C.ar    
   4 C4             1.9215    -3.0558    -0.4237 C.ar    
   5 C5             1.3849    -4.3048    -0.6652 C.ar    
   6 N6             0.0779    -4.4891    -0.7041 N.ar    
   7 C7             0.0174    -0.0634     0.1465 C.2     
   8 N8            -0.9394    -0.9943    -0.0349 N.am    
   9 N9             1.2327    -0.6349     0.0398 N.am    
  10 O10           -0.1854     1.1150     0.3718 O.2     
  11 C11           -2.3847    -0.7586     0.0062 C.3     
  12 C12           -3.6507    -0.9623    -3.3863 C.2     
  13 C13           -4.1150    -1.5156    -4.5959 C.2     
  14 C14           -4.4658    -0.6862    -5.6172 C.2     
  15 C15           -4.3602     0.7058    -5.4506 C.2     
  16 C16           -3.9137     1.2196    -4.2858 C.2     
  17 N17           -3.5589     0.3991    -3.2544 N.pl3   
  18 N18           -3.2433    -1.5130    -2.2512 N.2     
  19 C19           -2.8994    -0.5481    -1.3945 C.2     
  20 C20           -3.0855     0.6479    -1.9940 C.2     
  21 C21           -2.8195     2.0025    -1.3896 C.3     
  22 C22            2.5184     0.0540     0.1763 C.3     
  23 C23            2.8168     1.1929    -0.8007 C.3     
  24 C24            2.4946     1.5046     0.6621 C.3     
  25 C25           -4.1198     2.5695    -0.8165 C.3     
  26 C26           -3.8537     3.9242    -0.2121 C.2     
  27 O27           -2.7343     4.3901    -0.2373 O.2     
  28 Cl28          -5.0401    -1.3442    -7.1175 Cl      
  29 N29           -4.8597     4.6178     0.3564 N.am    
  30 C30           -4.6010     5.9347     0.9440 C.3     
  31 C31           -6.2119     4.0549     0.3869 C.3     
  32 H32           -1.8382    -3.6947    -0.5517 H       
  33 H33            2.9917    -2.9137    -0.3940 H       
  34 H34            2.0448    -5.1446    -0.8253 H       
  35 H35           -2.8811    -1.6217     0.4498 H       
  36 H36           -2.5914     0.1276     0.6062 H       
  37 H37           -4.1914    -2.5866    -4.7121 H       
  38 H38           -4.6376     1.3666    -6.2585 H       
  39 H39           -3.8361     2.2904    -4.1684 H       
  40 H40           -2.0825     1.9062    -0.5923 H       
  41 H41           -2.4376     2.6746    -2.1582 H       
  42 H42            3.3545    -0.5695     0.4930 H       
  43 H43            3.8493     1.3190    -1.1265 H       
  44 H44            2.0566     1.4297    -1.5451 H       
  45 H45            1.5223     1.9464     0.8802 H       
  46 H46            3.3150     1.8357     1.2987 H       
  47 H47           -4.8567     2.6658    -1.6138 H       
  48 H48           -4.5016     1.8975    -0.0480 H       
  49 H49           -4.7419     6.7049     0.1856 H       
  50 H50           -5.2922     6.1065     1.7691 H       
  51 H51           -3.5766     5.9724     1.3142 H       
  52 H52           -6.2092     3.0766    -0.0938 H       
  53 H53           -6.5388     3.9505     1.4215 H       
  54 H54           -6.8939     4.7188    -0.1443 H       
@<TRIPOS>BOND
   1    1    2 ar
   2    1    6 ar
   3    1   32 1
   4    2    3 ar
   5    2    8 1
   6    3    4 ar
   7    3    9 1
   8    4    5 ar
   9    4   33 1
  10    5    6 ar
  11    5   34 1
  12    7    8 am
  13    7    9 am
  14    7   10 2
  15    8   11 1
  16    9   22 1
  17   11   19 1
  18   11   35 1
  19   11   36 1
  20   12   13 1
  21   12   17 1
  22   12   18 2
  23   13   14 2
  24   13   37 1
  25   14   15 1
  26   14   28 1
  27   15   16 2
  28   15   38 1
  29   16   17 1
  30   16   39 1
  31   17   20 1
  32   18   19 1
  33   19   20 2
  34   20   21 1
  35   21   25 1
  36   21   40 1
  37   21   41 1
  38   22   23 1
  39   22   24 1
  40   22   42 1
  41   23   24 1
  42   23   43 1
  43   23   44 1
  44   24   45 1
  45   24   46 1
  46   25   26 1
  47   25   47 1
  48   25   48 1
  49   26   27 2
  50   26   29 am
  51   29   30 1
  52   29   31 1
  53   30   49 1
  54   30   50 1
  55   30   51 1
  56   31   52 1
  57   31   53 1
  58   31   54 1

#	End of record

