#	Name: ASD02500010
#	Creating user name:	WinNT
#	Creation time:	15. 06. 2019 20:22

#	Modifying user name:	WinNT
#	Modification time:	15. 06. 2019 20:22

#	Program:	/corina/corina34_cracker 3.40 0067  02.08.2006

@<TRIPOS>MOLECULE
ASD02500010
  37   37    0    0    0
SMALL
NO_CHARGES


@<TRIPOS>ATOM
   1 C1            -0.0166     1.3726     0.0096 C.ar    
   2 C2             0.0021    -0.0041     0.0020 C.ar    
   3 C3             1.2123    -0.6859    -0.0127 C.ar    
   4 C4             2.4153     0.0201    -0.0204 C.ar    
   5 C5             2.4061     1.4003    -0.0129 C.ar    
   6 C6             1.1865     2.0885     0.0019 C.ar    
   7 C7             1.1697     3.5570     0.0095 C.2     
   8 O8             0.1124     4.1514     0.0224 O.2     
   9 H9             2.0987     4.1077     0.0036 H       
  10 O10            3.5977    -0.6517    -0.0349 O.3     
  11 O11            1.2242    -2.0433    -0.0192 O.3     
  12 C12           -0.0432    -2.7033    -0.0103 C.3     
  13 C13            0.1705    -4.2183    -0.0194 C.3     
  14 C14           -1.1865    -4.9249    -0.0098 C.3     
  15 C15           -0.9727    -6.4398    -0.0190 C.3     
  16 C16            4.7907     0.1348    -0.0421 C.3     
  17 C17           -2.3298    -7.1464    -0.0094 C.3     
  18 C18           -2.1192    -8.6386    -0.0184 C.2     
  19 O19           -0.9987    -9.0906    -0.0312 O.2     
  20 O20           -3.1764    -9.4656    -0.0122 O.3     
  21 H21           -0.9590     1.9000     0.0169 H       
  22 H22           -0.9266    -0.5553     0.0079 H       
  23 H23            3.3369     1.9480    -0.0182 H       
  24 H24           -0.5943    -2.4195     0.8864 H       
  25 H25           -0.6112    -2.4112    -0.8935 H       
  26 H26            0.7216    -4.5020    -0.9161 H       
  27 H27            0.7386    -4.5104     0.8638 H       
  28 H28           -1.7375    -4.6411     0.8868 H       
  29 H29           -1.7545    -4.6327    -0.8930 H       
  30 H30           -0.4217    -6.7236    -0.9156 H       
  31 H31           -0.4047    -6.7320     0.8643 H       
  32 H32            5.6597    -0.5232    -0.0535 H       
  33 H33            4.8029     0.7683    -0.9290 H       
  34 H34            4.8196     0.7593     0.8508 H       
  35 H35           -2.8808    -6.8627     0.8873 H       
  36 H36           -2.8978    -6.8543    -0.8926 H       
  37 H37           -2.9914   -10.4147    -0.0184 H       
@<TRIPOS>BOND
   1    1    2 ar
   2    1    6 ar
   3    1   21 1
   4    2    3 ar
   5    2   22 1
   6    3    4 ar
   7    3   11 1
   8    4    5 ar
   9    4   10 1
  10    5    6 ar
  11    5   23 1
  12    6    7 1
  13    7    8 2
  14    7    9 1
  15   10   16 1
  16   11   12 1
  17   12   13 1
  18   12   24 1
  19   12   25 1
  20   13   14 1
  21   13   26 1
  22   13   27 1
  23   14   15 1
  24   14   28 1
  25   14   29 1
  26   15   17 1
  27   15   30 1
  28   15   31 1
  29   16   32 1
  30   16   33 1
  31   16   34 1
  32   17   18 1
  33   17   35 1
  34   17   36 1
  35   18   19 2
  36   18   20 1
  37   20   37 1

#	End of record

