#	Name: ASD03430027
#	Creating user name:	WinNT
#	Creation time:	15. 06. 2019 20:40

#	Modifying user name:	WinNT
#	Modification time:	15. 06. 2019 20:40

#	Program:	/corina/corina34_cracker 3.40 0067  02.08.2006

@<TRIPOS>MOLECULE
ASD03430027
  60   66    0    0    0
SMALL
NO_CHARGES


@<TRIPOS>ATOM
   1 C1            -0.0167     1.3821     0.0096 C.ar    
   2 C2             0.0021    -0.0041     0.0020 C.ar    
   3 C3             1.2027    -0.6820    -0.0146 C.ar    
   4 C4             2.4085     0.0129    -0.0142 C.ar    
   5 C5             2.3859     1.4039    -0.0114 C.ar    
   6 C6             1.1815     2.0869     0.0020 C.ar    
   7 O7             3.4713    -0.8417    -0.0026 O.3     
   8 C8             1.5512    -2.1458    -0.0472 C.3     
   9 C9             3.0373    -2.1462    -0.4322 C.3     
  10 C10            0.4309    -3.8628     1.0096 C.ar    
  11 C11            1.3148    -2.8193     1.2719 C.ar    
  12 C12            0.7195    -2.9085    -1.0382 C.2     
  13 N13            0.1031    -3.8887    -0.3481 N.am    
  14 O14            0.6212    -2.6857    -2.2263 O.2     
  15 C15            1.7765    -2.5967     2.5501 C.ar    
  16 C16            1.3646    -3.4137     3.5878 C.ar    
  17 C17            0.4882    -4.4541     3.3385 C.ar    
  18 C18            0.0222    -4.6807     2.0603 C.ar    
  19 C19           -0.8045    -4.8675    -0.9517 C.3     
  20 O20           -1.2112     2.0357     0.0189 O.3     
  21 O21            1.1867     3.4485     0.0119 O.3     
  22 C22           -2.2146    -4.3376    -0.9099 C.ar    
  23 C23           -2.7072    -3.5836    -1.9558 C.ar    
  24 N24           -3.9406    -3.1148    -1.9301 N.ar    
  25 C25           -4.7501    -3.3463    -0.9084 C.ar    
  26 C26           -4.3194    -4.0988     0.1798 C.ar    
  27 C27           -3.0335    -4.6078     0.1788 C.ar    
  28 C28           -1.1863     3.4157     0.4000 C.3     
  29 C29           -0.0357     4.0997    -0.3499 C.3     
  30 N30           -6.0417    -2.8327    -0.9227 N.3     
  31 C31           -6.2926    -2.0723    -2.1557 C.3     
  32 C32           -6.2906    -1.9997     0.2628 C.3     
  33 C33           -7.7391    -1.5047     0.2370 C.3     
  34 O34           -7.9734    -0.7949    -0.9823 O.3     
  35 C35           -7.7411    -1.5766    -2.1572 C.3     
  36 H36           -0.9269    -0.5549     0.0095 H       
  37 H37            3.3146     1.9551    -0.0197 H       
  38 H38            3.1580    -2.2589    -1.5096 H       
  39 H39            3.5755    -2.9287     0.1027 H       
  40 H40            2.4611    -1.7839     2.7425 H       
  41 H41            1.7268    -3.2395     4.5902 H       
  42 H42            0.1675    -5.0925     4.1485 H       
  43 H43           -0.6624    -5.4949     1.8735 H       
  44 H44           -0.5129    -5.0431    -1.9872 H       
  45 H45           -0.7514    -5.8035    -0.3956 H       
  46 H46           -2.0750    -3.3742    -2.8060 H       
  47 H47           -4.9815    -4.2861     1.0123 H       
  48 H48           -2.6716    -5.1954     1.0095 H       
  49 H49           -2.1314     3.8882     0.1325 H       
  50 H50           -1.0250     3.4975     1.4749 H       
  51 H51            0.0112     5.1521    -0.0700 H       
  52 H52           -0.1936     4.0114    -1.4248 H       
  53 H53           -5.6159    -1.2191    -2.2012 H       
  54 H54           -6.1271    -2.7155    -3.0200 H       
  55 H55           -6.1237    -2.5899     1.1639 H       
  56 H56           -5.6138    -1.1453     0.2559 H       
  57 H57           -8.4161    -2.3568     0.2980 H       
  58 H58           -7.9119    -0.8404     1.0838 H       
  59 H59           -7.9153    -0.9643    -3.0420 H       
  60 H60           -8.4182    -2.4308    -2.1658 H       
@<TRIPOS>BOND
   1    1    2 ar
   2    1    6 ar
   3    1   20 1
   4    2    3 ar
   5    2   36 1
   6    3    4 ar
   7    3    8 1
   8    4    5 ar
   9    4    7 1
  10    5    6 ar
  11    5   37 1
  12    6   21 1
  13    7    9 1
  14    8    9 1
  15    8   11 1
  16    8   12 1
  17    9   38 1
  18    9   39 1
  19   10   11 ar
  20   10   13 1
  21   10   18 ar
  22   11   15 ar
  23   12   13 am
  24   12   14 2
  25   13   19 1
  26   15   16 ar
  27   15   40 1
  28   16   17 ar
  29   16   41 1
  30   17   18 ar
  31   17   42 1
  32   18   43 1
  33   19   22 1
  34   19   44 1
  35   19   45 1
  36   20   28 1
  37   21   29 1
  38   22   23 ar
  39   22   27 ar
  40   23   24 ar
  41   23   46 1
  42   24   25 ar
  43   25   26 ar
  44   25   30 1
  45   26   27 ar
  46   26   47 1
  47   27   48 1
  48   28   29 1
  49   28   49 1
  50   28   50 1
  51   29   51 1
  52   29   52 1
  53   30   31 1
  54   30   32 1
  55   31   35 1
  56   31   53 1
  57   31   54 1
  58   32   33 1
  59   32   55 1
  60   32   56 1
  61   33   34 1
  62   33   57 1
  63   33   58 1
  64   34   35 1
  65   35   59 1
  66   35   60 1

#	End of record

