#	Name: ASD01810647
#	Creating user name:	WinNT
#	Creation time:	15. 06. 2019 19:25

#	Modifying user name:	WinNT
#	Modification time:	15. 06. 2019 19:25

#	Program:	/corina/corina34_cracker 3.40 0067  02.08.2006

@<TRIPOS>MOLECULE
ASD01810647
  73   77    0    0    0
SMALL
NO_CHARGES


@<TRIPOS>ATOM
   1 C1            -0.1652     1.9468     0.4802 C.ar    
   2 C2             0.0728     0.5712     0.4931 C.ar    
   3 C3            -0.9785    -0.3158     0.3686 C.ar    
   4 C4            -2.2704     0.1504     0.2302 C.ar    
   5 C5            -2.5224     1.5243     0.2157 C.ar    
   6 C6            -1.4670     2.4242     0.3466 C.ar    
   7 C7            -3.9067     2.0222     0.0668 C.2     
   8 C8             1.4800     0.0530     0.6428 C.3     
   9 C9            -3.4112    -0.8248     0.0939 C.3     
  10 N10           -4.4238     2.8607     0.9866 N.am    
  11 O11           -4.5783     1.6753    -0.8850 O.2     
  12 C12           -5.8241     3.2968     0.8987 C.3     
  13 C13           -3.5997     3.3512     2.0997 C.3     
  14 C14           -4.3228     3.0536     3.4170 C.3     
  15 C15           -5.7312     3.6501     3.3673 C.3     
  16 C16           -6.5176     2.9999     2.2320 C.3     
  17 C17           -6.4336     3.3888     4.6747 C.ar    
  18 C18           -6.8756     4.4481     5.4452 C.ar    
  19 C19           -7.5202     4.2096     6.6441 C.ar    
  20 C20           -7.7234     2.9091     7.0736 C.ar    
  21 C21           -7.2803     1.8489     6.3011 C.ar    
  22 C22           -6.6405     2.0897     5.1000 C.ar    
  23 F23           -8.3531     2.6747     8.2457 F       
  24 C24            0.9621     2.8953     0.6142 C.2     
  25 N25            2.2158     2.5727     0.8529 N.2     
  26 C26            2.9524     3.6835     0.9095 C.2     
  27 C27            2.1365     4.7410     0.6952 C.2     
  28 N28            0.8799     4.2552     0.5054 N.pl3   
  29 C29            4.4348     3.7922     1.1693 C.3     
  30 C30            4.9190     5.1712     0.7052 C.3     
  31 N31            3.9819     6.1987     1.1831 N.am    
  32 C32            2.5996     6.1766     0.6708 C.3     
  33 S33            4.4667     7.3512     2.2690 S.o2    
  34 C34            5.0739     8.7159     1.2397 C.3     
  35 O35            3.2712     7.7259     2.9395 O.2     
  36 O36            5.5404     6.7408     2.9718 O.2     
  37 C37            5.6705     9.8037     2.1351 C.3     
  38 C38            6.1496     8.1949     0.2846 C.3     
  39 H39           -0.7889    -1.3790     0.3792 H       
  40 H40           -1.6564     3.4874     0.3364 H       
  41 H41            1.7434     0.0170     1.6999 H       
  42 H42            1.5455    -0.9485     0.2176 H       
  43 H43            2.1688     0.7158     0.1191 H       
  44 H44           -3.7431    -1.1364     1.0843 H       
  45 H45           -4.2373    -0.3464    -0.4322 H       
  46 H46           -3.0784    -1.6969    -0.4688 H       
  47 H47           -5.8614     4.3675     0.6978 H       
  48 H48           -6.3260     2.7549     0.0971 H       
  49 H49           -2.6344     2.8451     2.0903 H       
  50 H50           -3.4519     4.4264     1.9988 H       
  51 H51           -4.3893     1.9750     3.5599 H       
  52 H52           -3.7688     3.4972     4.2443 H       
  53 H53           -5.6646     4.7251     3.1997 H       
  54 H54           -7.5286     3.4069     2.2100 H       
  55 H55           -6.5621     1.9225     2.3907 H       
  56 H56           -6.7167     5.4625     5.1102 H       
  57 H57           -7.8651     5.0373     7.2460 H       
  58 H58           -7.4381     0.8340     6.6351 H       
  59 H59           -6.2948     1.2629     4.4972 H       
  60 H60            0.0790     4.7744     0.3328 H       
  61 H61            4.6281     3.6771     2.2358 H       
  62 H62            4.9607     3.0148     0.6149 H       
  63 H63            5.9110     5.3651     1.1131 H       
  64 H64            4.9611     5.1950    -0.3837 H       
  65 H65            2.5763     6.5567    -0.3505 H       
  66 H66            1.9577     6.7843     1.3086 H       
  67 H67            4.2474     9.1322     0.6638 H       
  68 H68            6.4970     9.3874     2.7111 H       
  69 H69            6.0353    10.6237     1.5167 H       
  70 H70            4.9041    10.1749     2.8156 H       
  71 H71            6.9761     7.7786     0.8605 H       
  72 H72            5.7246     7.4199    -0.3533 H       
  73 H73            6.5145     9.0149    -0.3339 H       
@<TRIPOS>BOND
   1    1    2 ar
   2    1   24 1
   3    1    6 ar
   4    2    3 ar
   5    2    8 1
   6    3    4 ar
   7    3   39 1
   8    4    5 ar
   9    4    9 1
  10    5    6 ar
  11    5    7 1
  12    6   40 1
  13    7   10 am
  14    7   11 2
  15    8   41 1
  16    8   42 1
  17    8   43 1
  18    9   44 1
  19    9   45 1
  20    9   46 1
  21   10   12 1
  22   10   13 1
  23   12   16 1
  24   12   47 1
  25   12   48 1
  26   13   14 1
  27   13   49 1
  28   13   50 1
  29   14   15 1
  30   14   51 1
  31   14   52 1
  32   15   16 1
  33   15   17 1
  34   15   53 1
  35   16   54 1
  36   16   55 1
  37   17   18 ar
  38   17   22 ar
  39   18   19 ar
  40   18   56 1
  41   19   20 ar
  42   19   57 1
  43   20   21 ar
  44   20   23 1
  45   21   22 ar
  46   21   58 1
  47   22   59 1
  48   24   25 2
  49   24   28 1
  50   25   26 1
  51   26   27 2
  52   26   29 1
  53   27   28 1
  54   27   32 1
  55   28   60 1
  56   29   30 1
  57   29   61 1
  58   29   62 1
  59   30   31 1
  60   30   63 1
  61   30   64 1
  62   31   32 1
  63   31   33 am
  64   32   65 1
  65   32   66 1
  66   33   34 1
  67   33   35 2
  68   33   36 2
  69   34   37 1
  70   34   38 1
  71   34   67 1
  72   37   68 1
  73   37   69 1
  74   37   70 1
  75   38   71 1
  76   38   72 1
  77   38   73 1

#	End of record

