#	Name: ASD02039425
#	Creating user name:	WinNT
#	Creation time:	15. 06. 2019 20:18

#	Modifying user name:	WinNT
#	Modification time:	15. 06. 2019 20:18

#	Program:	/corina/corina34_cracker 3.40 0067  02.08.2006

@<TRIPOS>MOLECULE
ASD02039425
  49   52    0    0    0
SMALL
NO_CHARGES


@<TRIPOS>ATOM
   1 C1             0.0949     0.9285    -0.3293 C.2     
   2 C2             0.3791    -0.3729    -0.4396 C.2     
   3 C3             1.0914     2.0329    -0.0882 C.3     
   4 N4             1.5769     2.5418    -1.3734 N.am    
   5 C5             0.8830     3.6519    -2.0310 C.3     
   6 C6             2.6619     1.9887    -1.9507 C.2     
   7 C7             3.4141     0.9352    -1.2474 C.2     
   8 C8             4.5847     0.3685    -1.6591 C.2     
   9 N9             3.0717     0.3556    -0.0685 N.2     
  10 C10            3.9732    -0.5305     0.2425 C.2     
  11 N11            4.9275    -0.5486    -0.7241 N.pl3   
  12 O12            3.0200     2.3593    -3.0524 O.2     
  13 C13            6.1143    -1.4071    -0.7504 C.3     
  14 C14            1.8096     4.8187    -2.4114 C.3     
  15 C15            1.0096     4.9240    -3.7205 C.3     
  16 C16            0.6657     3.4363    -3.5380 C.3     
  17 N17           -0.6458    -1.1674    -0.6497 N.2     
  18 C18           -1.8203    -0.6098    -0.7280 C.2     
  19 S19           -1.6453     1.1311    -0.5222 S.3     
  20 C20           -3.0945    -1.3225    -0.9593 C.ar    
  21 C21           -3.1023    -2.7099    -1.1138 C.ar    
  22 C22           -4.2926    -3.3709    -1.3288 C.ar    
  23 C23           -5.4830    -2.6585    -1.3922 C.ar    
  24 C24           -5.4793    -1.2782    -1.2395 C.ar    
  25 C25           -4.2938    -0.6106    -1.0180 C.ar    
  26 O26           -6.6540    -3.3135    -1.6047 O.3     
  27 C27           -7.8409    -2.5195    -1.6588 C.3     
  28 F28           -7.7345    -1.5920    -2.7007 F       
  29 F29           -8.9461    -3.3475    -1.8826 F       
  30 F30           -8.0041    -1.8416    -0.4459 F       
  31 H31            1.3888    -0.7481    -0.3611 H       
  32 H32            0.6118     2.8407     0.4646 H       
  33 H33            1.9306     1.6454     0.4895 H       
  34 H34           -0.0159     3.9637    -1.4991 H       
  35 H35            5.1329     0.6057    -2.5589 H       
  36 H36            3.9653    -1.1492     1.1277 H       
  37 H37            5.8783    -2.3376    -1.2666 H       
  38 H38            6.9214    -0.8953    -1.2747 H       
  39 H39            6.4263    -1.6270     0.2706 H       
  40 H40            1.7039     5.6892    -1.7639 H       
  41 H41            2.8482     4.5219    -2.5571 H       
  42 H42            0.1446     5.5837    -3.6518 H       
  43 H43            1.6281     5.1250    -4.5952 H       
  44 H44            1.3916     2.7615    -3.9917 H       
  45 H45           -0.3635     3.1907    -3.8000 H       
  46 H46           -2.1769    -3.2646    -1.0652 H       
  47 H47           -4.2994    -4.4442    -1.4484 H       
  48 H48           -6.4070    -0.7275    -1.2898 H       
  49 H49           -4.2918     0.4629    -0.8993 H       
@<TRIPOS>BOND
   1    1    2 2
   2    1    3 1
   3    1   19 1
   4    2   17 1
   5    2   31 1
   6    3    4 1
   7    3   32 1
   8    3   33 1
   9    4    5 1
  10    4    6 am
  11    5   14 1
  12    5   16 1
  13    5   34 1
  14    6    7 1
  15    6   12 2
  16    7    8 2
  17    7    9 1
  18    8   11 1
  19    8   35 1
  20    9   10 2
  21   10   11 1
  22   10   36 1
  23   11   13 1
  24   13   37 1
  25   13   38 1
  26   13   39 1
  27   14   15 1
  28   14   40 1
  29   14   41 1
  30   15   16 1
  31   15   42 1
  32   15   43 1
  33   16   44 1
  34   16   45 1
  35   17   18 2
  36   18   19 1
  37   18   20 1
  38   20   21 ar
  39   20   25 ar
  40   21   22 ar
  41   21   46 1
  42   22   23 ar
  43   22   47 1
  44   23   24 ar
  45   23   26 1
  46   24   25 ar
  47   24   48 1
  48   25   49 1
  49   26   27 1
  50   27   28 1
  51   27   29 1
  52   27   30 1

#	End of record

