#	Name: ASD07110022
#	Creating user name:	WinNT
#	Creation time:	15. 06. 2019 21:09

#	Modifying user name:	WinNT
#	Modification time:	15. 06. 2019 21:09

#	Program:	/corina/corina34_cracker 3.40 0067  02.08.2006

@<TRIPOS>MOLECULE
ASD07110022
 442  450    0    0    0
SMALL
NO_CHARGES


@<TRIPOS>ATOM
   1 C1            -3.4916    21.6521    15.0207 C.2     
   2 O2            -4.5181    21.1588    14.6037 O.2     
   3 N3            -4.8493    23.6214    15.4485 N.3     
   4 C4            -3.4938    23.0639    15.5476 C.3     
   5 C5            -3.1133    18.6421    15.3295 C.2     
   6 O6            -3.8141    19.0972    16.2085 O.2     
   7 N7            -2.3501    20.9356    15.0180 N.am    
   8 C8            -2.2077    19.5523    14.5406 C.3     
   9 C9            -0.7354    19.1427    14.7554 C.3     
  10 C10           -0.2605    20.1211    15.8620 C.3     
  11 C11           -1.0360    21.4113    15.4873 C.3     
  12 C12           -3.4745    15.0348    15.7982 C.2     
  13 O13           -2.4480    14.7976    15.1974 O.2     
  14 N14           -3.1444    17.3223    15.0583 N.am    
  15 C15           -4.0248    16.4374    15.8253 C.3     
  16 C16           -5.4239    16.4484    15.2062 C.3     
  17 O17           -5.3690    15.8831    13.8949 O.3     
  18 C18           -4.7089    11.6967    16.6328 C.2     
  19 O19           -5.7803    12.0810    17.0513 O.2     
  20 N20           -4.1230    14.0439    16.4416 N.am    
  21 C21           -3.5880    12.6803    16.4153 C.3     
  22 C22           -2.5462    12.5197    17.5241 C.3     
  23 C23           -1.3346    13.4022    17.2173 C.3     
  24 C24           -0.3739    13.3815    18.4079 C.3     
  25 C25           -0.6180    12.8704    15.9745 C.3     
  26 C26           -3.1492    10.4145    14.3477 C.2     
  27 O27           -3.8873    11.3001    13.9710 O.2     
  28 N28           -4.5206    10.3898    16.3622 N.am    
  29 C29           -3.3335     9.8109    15.7161 C.3     
  30 C30           -3.5747     8.2918    15.5916 C.3     
  31 C31           -5.1206     8.1785    15.6604 C.3     
  32 C32           -5.4680     9.3033    16.6707 C.3     
  33 C33           -3.0175     9.7728    11.2792 C.2     
  34 O34           -3.7417     8.9127    11.7337 O.2     
  35 N35           -2.1640     9.9702    13.5423 N.am    
  36 C36           -2.0430    10.4897    12.1779 C.3     
  37 C37           -0.6180    10.2616    11.6698 C.3     
  38 C38            0.3495    11.0455    12.5187 C.2     
  39 C39            0.7959    12.2886    12.2794 C.2     
  40 N40            1.6614    12.6718    13.2675 N.pl3   
  41 C41            1.7965    11.6588    14.1903 C.ar    
  42 C42            2.5326    11.5233    15.3626 C.ar    
  43 C43            2.4549    10.3544    16.0881 C.ar    
  44 C44            1.6485     9.3085    15.6611 C.ar    
  45 C45            0.9172     9.4202    14.5121 C.ar    
  46 C46            0.9761    10.5978    13.7649 C.ar    
  47 C47           -3.5322     9.4377     7.6756 C.2     
  48 O48           -2.7956    10.3335     7.3209 O.2     
  49 N49           -3.0841    10.0876     9.9704 N.am    
  50 C50           -4.0314     9.3907     9.0968 C.3     
  51 C51           -5.3985    10.0727     9.1799 C.3     
  52 C52           -5.9848     9.8572    10.5514 C.ar    
  53 C53           -5.7279    10.7650    11.5621 C.ar    
  54 C54           -6.2638    10.5696    12.8203 C.ar    
  55 C55           -7.0606     9.4615    13.0691 C.ar    
  56 O56           -7.5893     9.2672    14.3059 O.3     
  57 C57           -7.3172     8.5524    12.0531 C.ar    
  58 C58           -6.7832     8.7551    10.7953 C.ar    
  59 C59           -4.1343     9.6975     4.6977 C.2     
  60 O60           -4.7433    10.5185     5.3503 O.2     
  61 N61           -3.9044     8.4842     6.7988 N.am    
  62 C62           -3.5801     8.4651     5.3649 C.3     
  63 C63           -4.2348     7.2035     4.7639 C.3     
  64 C64           -5.3642     6.8814     5.7779 C.3     
  65 C65           -4.6985     7.2844     7.1199 C.3     
  66 C66           -4.1546    11.0562     1.2586 C.2     
  67 O67           -3.5260    10.1264     0.7991 O.2     
  68 N68           -3.9532     9.8872     3.3757 N.am    
  69 C69           -4.4920    11.0853     2.7271 C.3     
  70 C70           -4.2022    13.4427    -1.5101 C.2     
  71 O71           -4.4378    14.3773    -0.7739 O.2     
  72 N72           -4.5514    12.0636     0.4559 N.am    
  73 C73           -4.2233    12.0354    -0.9716 C.3     
  74 C74           -5.2777    11.2184    -1.7211 C.3     
  75 C75           -5.2140     9.7602    -1.2623 C.3     
  76 C76           -6.2525     8.9555    -2.0005 C.2     
  77 O77           -6.9700     9.4931    -2.8105 O.2     
  78 O78           -6.3805     7.6414    -1.7582 O.3     
  79 C79           -4.0020    15.0467    -4.8016 C.2     
  80 O80           -3.9490    14.0109    -5.4302 O.2     
  81 N81           -3.9213    13.6628    -2.8097 N.am    
  82 C82           -3.7924    15.0340    -3.3093 C.3     
  83 C83           -2.3945    15.5653    -2.9861 C.3     
  84 C84           -2.3015    17.0371    -3.3935 C.3     
  85 C85           -3.2259    17.8717    -2.5049 C.3     
  86 C86           -0.8599    17.5221    -3.2275 C.3     
  87 C87           -4.1706    17.5552    -7.4553 C.2     
  88 O88           -4.1814    18.5427    -6.7512 O.2     
  89 N89           -4.2485    16.2092    -5.4375 N.am    
  90 C90           -4.5314    16.2120    -6.8750 C.3     
  91 C91           -6.0200    15.9414    -7.1023 C.3     
  92 C92           -4.4144    19.9601    -9.3142 C.2     
  93 O93           -5.4550    19.7372    -8.7325 O.2     
  94 N94           -3.8359    17.6592    -8.7567 N.am    
  95 C95           -3.3677    18.8816    -9.4260 C.3     
  96 C96           -3.1329    18.5300   -10.9102 C.3     
  97 C97           -4.0211    17.2743   -11.1146 C.3     
  98 C98           -3.8725    16.5644    -9.7433 C.3     
  99 C99           -5.0483    23.1986   -10.8867 C.2     
 100 O100          -4.1579    23.0456   -11.6958 O.2     
 101 N101          -4.1940    21.1722    -9.8605 N.am    
 102 C102          -5.2114    22.2207    -9.7518 C.3     
 103 C103          -5.0476    22.9541    -8.4191 C.3     
 104 C104          -5.3538    21.9942    -7.2677 C.3     
 105 C105          -3.6105    23.4630    -8.2903 C.3     
 106 C106          -6.3605    26.4830   -11.8109 C.2     
 107 O107          -6.7837    26.6903   -10.6934 O.2     
 108 N108          -5.8919    24.2433   -11.0026 N.am    
 109 C109          -5.8073    25.1274   -12.1677 C.3     
 110 C110          -6.6197    24.5321   -13.3196 C.3     
 111 C111          -5.9832    23.2139   -13.7647 C.3     
 112 C112          -6.7833    22.6276   -14.8992 C.2     
 113 O113          -7.7621    23.2049   -15.3097 O.2     
 114 O114          -6.4085    21.4641   -15.4538 O.3     
 115 C115          -7.4078    29.4722   -13.6360 C.2     
 116 O116          -7.3136    28.9173   -14.7103 O.2     
 117 N117          -6.3849    27.4650   -12.7336 N.am    
 118 C118          -6.9227    28.7829   -12.3868 C.3     
 119 C119          -5.8257    29.6253   -11.7327 C.3     
 120 C120          -5.4206    28.9901   -10.4010 C.3     
 121 C121          -4.3401    29.8198    -9.7567 C.2     
 122 O122          -3.9355    30.8169   -10.3063 O.2     
 123 O123          -3.8272    29.4512    -8.5724 O.3     
 124 C124          -8.3833    32.8989   -14.5008 C.2     
 125 O125          -8.4830    33.2942   -13.3585 O.2     
 126 N126          -7.9463    30.7053   -13.5594 N.am    
 127 C127          -8.3168    31.4201   -14.7833 C.3     
 128 C128          -9.6840    30.9310   -15.2655 C.3     
 129 C129         -10.0544    31.6508   -16.5638 C.3     
 130 C130          -9.0885    31.2305   -17.6734 C.3     
 131 C131         -11.4835    31.2784   -16.9636 C.3     
 132 C132          -8.9765    35.9149   -16.4794 C.2     
 133 O133          -9.2170    35.2770   -17.4825 O.2     
 134 N134          -8.3321    33.7822   -15.5175 N.am    
 135 C135          -8.4582    35.2168   -15.2486 C.3     
 136 C136          -7.0885    35.7883   -14.8768 C.3     
 137 C137          -6.6182    35.1692   -13.5590 C.3     
 138 C138          -5.2691    35.7321   -13.1928 C.2     
 139 O139          -4.7383    36.5450   -13.9120 O.2     
 140 O140          -4.6573    35.3304   -12.0676 O.3     
 141 C141          -9.2470    39.3712   -17.6388 C.2     
 142 O142          -8.5850    39.7921   -16.7139 O.2     
 143 N143          -9.1729    37.2482   -16.4655 N.am    
 144 C144          -9.6768    37.9269   -17.6620 C.3     
 145 C145         -11.2047    37.8498   -17.6867 C.3     
 146 C146         -11.6394    36.3905   -17.8359 C.3     
 147 C147         -13.1672    36.3134   -17.8606 C.3     
 148 N148         -13.5834    34.9160   -18.0035 N.pl3   
 149 C149         -14.9202    34.5983   -18.0499 C.2     
 150 N150         -15.8173    35.5402   -17.9668 N.2     
 151 N151         -15.3108    33.2869   -18.1839 N.pl3   
 152 C152         -10.1399    42.4219   -19.4441 C.2     
 153 O153         -11.0801    41.8881   -19.9937 O.2     
 154 N154          -9.5983    40.1950   -18.6460 N.am    
 155 C155          -9.1805    41.5990   -18.6234 C.3     
 156 C156          -7.7727    41.7216   -19.2098 C.3     
 157 C157          -6.7934    40.9999   -18.3202 C.ar    
 158 C158          -6.5173    39.6630   -18.5379 C.ar    
 159 C159          -5.6191    39.0010   -17.7219 C.ar    
 160 C160          -4.9967    39.6760   -16.6885 C.ar    
 161 C161          -5.2721    41.0131   -16.4714 C.ar    
 162 C162          -6.1671    41.6762   -17.2901 C.ar    
 163 C163         -10.7088    44.4710   -21.7582 C.2     
 164 O164          -9.8027    43.7873   -22.1855 O.2     
 165 N165          -9.9531    43.7509   -19.5674 N.am    
 166 C166         -10.9440    44.5676   -20.2728 C.3     
 167 C167         -10.8118    46.0259   -19.8292 C.3     
 168 C168         -11.1456    46.1375   -18.3639 C.2     
 169 O169         -11.5521    45.1681   -17.7590 O.2     
 170 N170         -10.9925    47.3146   -17.7256 N.am    
 171 C171         -10.2788    46.2780   -24.3723 C.2     
 172 O172          -9.8978    47.0204   -23.4922 O.2     
 173 N173         -11.5053    45.1444   -22.6117 N.am    
 174 C174         -11.2110    45.1395   -24.0468 C.3     
 175 C175         -12.5120    45.3044   -24.8349 C.3     
 176 C176         -13.4004    44.1114   -24.5931 C.2     
 177 O177         -13.0685    43.2598   -23.7959 O.2     
 178 N178         -14.5637    43.9907   -25.2629 N.am    
 179 C179          -9.1305    47.9673   -27.4040 C.2     
 180 O180          -9.9288    47.3782   -28.1016 O.2     
 181 N181          -9.8685    46.4712   -25.6415 N.am    
 182 C182          -8.9623    47.5780   -25.9579 C.3     
 183 C183          -7.5170    47.1398   -25.7125 C.3     
 184 C184          -7.1890    45.9411   -26.6049 C.3     
 185 C185          -5.7098    45.5812   -26.4521 C.3     
 186 C186          -7.3462    46.7446   -24.2443 C.3     
 187 C187          -7.2387    50.0226   -29.7785 C.2     
 188 O188          -6.5224    50.5353   -28.9449 O.2     
 189 N189          -8.3939    48.9700   -27.9220 N.am    
 190 C190          -8.4767    49.2765   -29.3522 C.3     
 191 C191          -9.7104    50.1417   -29.6177 C.3     
 192 C192          -9.8797    50.3394   -31.1254 C.3     
 193 C193         -10.1757    48.9917   -31.7864 C.3     
 194 C194         -11.0405    51.3014   -31.3864 C.3     
 195 C195          -5.9470    51.3138   -32.9578 C.2     
 196 O196          -6.7352    50.7138   -33.6575 O.2     
 197 N197          -6.9275    50.1201   -31.0863 N.am    
 198 C198          -5.7847    50.9336   -31.5086 C.3     
 199 C199          -4.4944    50.1303   -31.3335 C.3     
 200 C200          -3.2911    51.0262   -31.6342 C.3     
 201 C201          -3.2184    52.1480   -30.5962 C.3     
 202 C202          -2.0086    50.1940   -31.5764 C.3     
 203 C203          -4.0347    53.3062   -35.3529 C.2     
 204 O204          -3.1435    53.5106   -34.5562 O.2     
 205 N205          -5.2162    52.3205   -33.4763 N.am    
 206 C206          -5.3047    52.6293   -34.9056 C.3     
 207 C207          -6.4934    53.5601   -35.1537 C.3     
 208 C208          -7.7937    52.8276   -34.8166 C.3     
 209 C209          -8.9645    53.7444   -35.0609 C.2     
 210 O210          -8.7773    54.8725   -35.4649 O.2     
 211 N211         -10.2196    53.3107   -34.8305 N.am    
 212 C212          -2.7507    55.8214   -36.7997 C.2     
 213 O213          -3.7479    56.2787   -36.2936 O.2     
 214 N214          -3.8894    53.6844   -36.6383 N.am    
 215 C215          -2.6548    54.3425   -37.0731 C.3     
 216 C216          -2.4554    54.1129   -38.5726 C.3     
 217 C217          -2.2368    52.6445   -38.8313 C.ar    
 218 C218          -3.3176    51.8198   -39.0835 C.ar    
 219 C219          -3.1200    50.4733   -39.3205 C.ar    
 220 C220          -1.8357    49.9487   -39.3058 C.ar    
 221 O221          -1.6387    48.6245   -39.5390 O.3     
 222 C222          -0.7529    50.7784   -39.0529 C.ar    
 223 C223          -0.9554    52.1252   -38.8216 C.ar    
 224 O224          -1.7282    56.6305   -37.1185 O.3     
 225 H225          -4.8771    24.5683    15.7959 H       
 226 H226          -5.1915    23.5739    14.5005 H       
 227 H227          -3.1766    23.0631    16.5904 H       
 228 H228          -2.8069    23.6723    14.9594 H       
 229 H229          -2.4592    19.4980    13.4814 H       
 230 H230          -0.6685    18.1104    15.0987 H       
 231 H231          -0.1584    19.2846    13.8416 H       
 232 H232          -0.5472    19.7620    16.8504 H       
 233 H233           0.8158    20.2836    15.8042 H       
 234 H234          -0.5206    21.9488    14.6913 H       
 235 H235          -1.1542    22.0500    16.3626 H       
 236 H236          -2.5839    16.9583    14.3553 H       
 237 H237          -4.0810    16.7858    16.8566 H       
 238 H238          -6.1005    15.8612    15.8270 H       
 239 H239          -5.7859    17.4747    15.1446 H       
 240 H240          -6.2227    15.8578    13.4415 H       
 241 H241          -4.9440    14.2336    16.9221 H       
 242 H242          -3.1216    12.4916    15.4483 H       
 243 H243          -2.9814    12.8188    18.4777 H       
 244 H244          -2.2319    11.4774    17.5792 H       
 245 H245          -1.6664    14.4245    17.0359 H       
 246 H246          -0.0422    12.3592    18.5894 H       
 247 H247           0.4892    14.0102    18.1893 H       
 248 H248          -0.8845    13.7603    19.2933 H       
 249 H249          -0.3504    11.8251    16.1288 H       
 250 H250          -1.2783    12.9528    15.1112 H       
 251 H251           0.2853    13.4545    15.7981 H       
 252 H252          -2.4503     9.9996    16.3264 H       
 253 H253          -3.2029     7.9192    14.6371 H       
 254 H254          -3.1116     7.7584    16.4217 H       
 255 H255          -5.5702     8.3712    14.6864 H       
 256 H256          -5.4243     7.2043    16.0434 H       
 257 H257          -5.3256     8.9549    17.6937 H       
 258 H258          -6.4938     9.6413    16.5236 H       
 259 H259          -1.5351     9.3065    13.8661 H       
 260 H260          -2.2634    11.5571    12.1746 H       
 261 H261          -0.3765     9.2003    11.7296 H       
 262 H262          -0.5440    10.5933    10.6342 H       
 263 H263           0.5141    12.8962    11.4322 H       
 264 H264           2.1127    13.5293    13.3114 H       
 265 H265           3.1632    12.3313    15.7029 H       
 266 H266           3.0275    10.2509    16.9979 H       
 267 H267           1.5989     8.3991    16.2415 H       
 268 H268           0.2923     8.6020    14.1858 H       
 269 H269          -2.5049    10.7755     9.6069 H       
 270 H270          -4.1234     8.3524     9.4154 H       
 271 H271          -5.2832    11.1411     8.9978 H       
 272 H272          -6.0637     9.6459     8.4293 H       
 273 H273          -5.1075    11.6275    11.3679 H       
 274 H274          -6.0622    11.2786    13.6097 H       
 275 H275          -8.4580     9.6733    14.4305 H       
 276 H276          -7.9369     7.6888    12.2444 H       
 277 H277          -6.9863     8.0500    10.0028 H       
 278 H278          -2.4993     8.4249     5.2297 H       
 279 H279          -4.6502     7.4165     3.7789 H       
 280 H280          -3.5177     6.3842     4.7122 H       
 281 H281          -6.2502     7.4849     5.5806 H       
 282 H282          -5.6070     5.8188     5.7677 H       
 283 H283          -4.0502     6.4853     7.4794 H       
 284 H284          -5.4590     7.5208     7.8641 H       
 285 H285          -3.4661     9.2306     2.8537 H       
 286 H286          -4.0542    11.9733     3.1830 H       
 287 H287          -5.5747    11.1096     2.8507 H       
 288 H288          -5.0541    12.8073     0.8235 H       
 289 H289          -3.2435    11.5785    -1.1103 H       
 290 H290          -6.2678    11.6226    -1.5106 H       
 291 H291          -5.0841    11.2709    -2.7925 H       
 292 H292          -4.2239     9.3560    -1.4728 H       
 293 H293          -5.4076     9.7076    -0.1909 H       
 294 H294          -7.0605     7.1674    -2.2561 H       
 295 H295          -3.8045    12.9134    -3.4143 H       
 296 H296          -4.5408    15.6665    -2.8318 H       
 297 H297          -2.2088    15.4720    -1.9161 H       
 298 H298          -1.6506    14.9884    -3.5355 H       
 299 H299          -2.6036    17.1455    -4.4352 H       
 300 H300          -2.9837    17.6909    -1.4576 H       
 301 H301          -3.0906    18.9292    -2.7317 H       
 302 H302          -4.2620    17.5896    -2.6922 H       
 303 H303          -0.2013    16.9275    -3.8606 H       
 304 H304          -0.7936    18.5706    -3.5178 H       
 305 H305          -0.5578    17.4136    -2.1858 H       
 306 H306          -4.2386    17.0439    -4.9435 H       
 307 H307          -3.9423    15.4354    -7.3628 H       
 308 H308          -6.6107    16.6653    -6.5410 H       
 309 H309          -6.2477    16.0322    -8.1644 H       
 310 H310          -6.2621    14.9341    -6.7636 H       
 311 H311          -2.4368    19.2200    -8.9711 H       
 312 H312          -3.4617    19.3442   -11.5561 H       
 313 H313          -2.0840    18.2938   -11.0893 H       
 314 H314          -5.0573    17.5551   -11.3028 H       
 315 H315          -3.6348    16.6495   -11.9199 H       
 316 H316          -2.9460    15.9913    -9.7086 H       
 317 H317          -4.7283    15.9152    -9.5581 H       
 318 H318          -3.3617    21.3505   -10.3258 H       
 319 H319          -6.2032    21.7709    -9.7995 H       
 320 H320          -5.7366    23.7979    -8.3816 H       
 321 H321          -4.5994    21.2078    -7.2399 H       
 322 H322          -5.3427    22.5418    -6.3253 H       
 323 H323          -6.3373    21.5489    -7.4176 H       
 324 H324          -3.3923    24.1469    -9.1106 H       
 325 H325          -3.4937    23.9855    -7.3409 H       
 326 H326          -2.9215    22.6192    -8.3278 H       
 327 H327          -6.5550    24.4098   -10.3146 H       
 328 H328          -4.7656    25.2287   -12.4721 H       
 329 H329          -7.6412    24.3483   -12.9868 H       
 330 H330          -6.6303    25.2311   -14.1559 H       
 331 H331          -4.9617    23.3978   -14.0975 H       
 332 H332          -5.9726    22.5150   -12.9284 H       
 333 H333          -6.9530    21.1277   -16.1786 H       
 334 H334          -6.0465    27.2993   -13.6274 H       
 335 H335          -7.7535    28.6647   -11.6911 H       
 336 H336          -4.9593    29.6694   -12.3926 H       
 337 H337          -6.1991    30.6339   -11.5554 H       
 338 H338          -6.2870    28.9460    -9.7410 H       
 339 H339          -5.0472    27.9815   -10.5782 H       
 340 H340          -3.1362    30.0150    -8.1986 H       
 341 H341          -8.0885    31.1195   -12.6939 H       
 342 H342          -7.5704    31.2308   -15.5548 H       
 343 H343          -9.6431    29.8566   -15.4446 H       
 344 H344         -10.4351    31.1442   -14.5049 H       
 345 H345          -9.9883    32.7284   -16.4134 H       
 346 H346          -9.3144    31.7882   -18.5823 H       
 347 H347          -8.0650    31.4408   -17.3630 H       
 348 H348          -9.1979    30.1631   -17.8653 H       
 349 H349         -12.1717    31.5779   -16.1731 H       
 350 H350         -11.7474    31.7912   -17.8885 H       
 351 H351         -11.5496    30.2009   -17.1139 H       
 352 H352          -8.2118    33.4680   -16.4273 H       
 353 H353          -9.1529    35.3720   -14.4231 H       
 354 H354          -6.3716    35.5550   -15.6640 H       
 355 H355          -7.1646    36.8697   -14.7634 H       
 356 H356          -7.3351    35.4025   -12.7717 H       
 357 H357          -6.5421    34.0878   -13.6723 H       
 358 H358          -3.7932    35.7195   -11.8749 H       
 359 H359          -8.9807    37.7584   -15.6632 H       
 360 H360          -9.2741    37.4422   -18.5514 H       
 361 H361         -11.6040    38.2547   -16.7568 H       
 362 H362         -11.5842    38.4298   -18.5280 H       
 363 H363         -11.2400    35.9857   -18.7658 H       
 364 H364         -11.2599    35.8106   -16.9946 H       
 365 H365         -13.5665    36.7182   -16.9307 H       
 366 H366         -13.5467    36.8933   -18.7019 H       
 367 H367         -12.9158    34.2150   -18.0653 H       
 368 H368         -16.7604    35.3160   -17.9995 H       
 369 H369         -14.6432    32.5859   -18.2457 H       
 370 H370         -16.2540    33.0627   -18.2166 H       
 371 H371         -10.1278    39.8584   -19.3857 H       
 372 H372          -9.1787    41.9611   -17.5953 H       
 373 H373          -7.7539    41.2785   -20.2055 H       
 374 H374          -7.4967    42.7741   -19.2752 H       
 375 H375          -7.0036    39.1357   -19.3453 H       
 376 H376          -5.4039    37.9564   -17.8916 H       
 377 H377          -4.2954    39.1586   -16.0506 H       
 378 H378          -4.7861    41.5404   -15.6639 H       
 379 H379          -6.3795    42.7218   -17.1228 H       
 380 H380          -9.1627    44.1667   -19.1890 H       
 381 H381         -11.9454    44.2061   -20.0392 H       
 382 H382          -9.7894    46.3651   -19.9958 H       
 383 H383         -11.4986    46.6449   -20.4065 H       
 384 H384         -10.6674    48.0900   -18.2094 H       
 385 H385         -11.2074    47.3865   -16.7825 H       
 386 H386         -12.2735    45.6322   -22.2758 H       
 387 H387         -10.7393    44.1949   -24.3178 H       
 388 H388         -13.0227    46.2100   -24.5075 H       
 389 H389         -12.2856    45.3793   -25.8985 H       
 390 H390         -14.8291    44.6718   -25.9006 H       
 391 H391         -15.1355    43.2228   -25.1073 H       
 392 H392         -10.1732    45.8775   -26.3454 H       
 393 H393          -9.1959    48.4320   -25.3221 H       
 394 H394          -6.8428    47.9633   -25.9479 H       
 395 H395          -7.8024    45.0898   -26.3097 H       
 396 H396          -7.3957    46.1948   -27.6446 H       
 397 H397          -5.4761    44.7271   -27.0878 H       
 398 H398          -5.0964    46.4324   -26.7472 H       
 399 H399          -5.5031    45.3275   -25.4123 H       
 400 H400          -6.3166    46.4325   -24.0695 H       
 401 H401          -7.5799    47.5986   -23.6086 H       
 402 H402          -8.0204    45.9211   -24.0089 H       
 403 H403          -7.8089    49.4887   -27.3479 H       
 404 H404          -8.5549    48.3486   -29.9187 H       
 405 H405         -10.5943    49.6476   -29.2145 H       
 406 H406          -9.5846    51.1114   -29.1360 H       
 407 H407          -8.9625    50.7551   -31.5426 H       
 408 H408         -11.0363    48.5306   -31.3018 H       
 409 H409         -10.3931    49.1454   -32.8434 H       
 410 H410          -9.3086    48.3390   -31.6850 H       
 411 H411         -10.8296    52.2615   -30.9155 H       
 412 H412         -11.1612    51.4422   -32.4605 H       
 413 H413         -11.9577    50.8857   -30.9692 H       
 414 H414          -7.4602    49.6516   -31.7478 H       
 415 H415          -5.7363    51.8362   -30.8994 H       
 416 H416          -4.4292    49.7665   -30.3081 H       
 417 H417          -4.4975    49.2836   -32.0199 H       
 418 H418          -3.3994    51.4582   -32.6290 H       
 419 H419          -2.3083    52.7275   -30.7507 H       
 420 H420          -4.0862    52.7988   -30.7033 H       
 421 H421          -3.2091    51.7167   -29.5952 H       
 422 H422          -2.0603    49.3949   -32.3158 H       
 423 H423          -1.1513    50.8323   -31.7906 H       
 424 H424          -1.9003    49.7620   -30.5815 H       
 425 H425          -4.6316    52.8407   -32.9030 H       
 426 H426          -5.4422    51.7063   -35.4689 H       
 427 H427          -6.4003    54.4442   -34.5231 H       
 428 H428          -6.5069    53.8608   -36.2013 H       
 429 H429          -7.8867    51.9435   -35.4472 H       
 430 H430          -7.7801    52.5269   -33.7690 H       
 431 H431         -10.3692    52.4084   -34.5073 H       
 432 H432         -10.9732    53.9008   -34.9877 H       
 433 H433          -4.6022    53.5209   -37.2756 H       
 434 H434          -1.8090    53.9260   -36.5261 H       
 435 H435          -3.3405    54.4492   -39.1125 H       
 436 H436          -1.5862    54.6753   -38.9138 H       
 437 H437          -4.3172    52.2287   -39.0950 H       
 438 H438          -3.9645    49.8294   -39.5168 H       
 439 H439          -1.5048    48.4050   -40.4712 H       
 440 H440           0.2477    50.3723   -39.0404 H       
 441 H441          -0.1125    52.7723   -38.6290 H       
 442 H442          -1.8360    57.5716   -36.9241 H       
@<TRIPOS>BOND
   1    1    2 2
   2    1    4 1
   3    1    7 am
   4    3    4 1
   5    3  225 1
   6    3  226 1
   7    4  227 1
   8    4  228 1
   9    5    6 2
  10    5   14 am
  11    5    8 1
  12    7    8 1
  13    7   11 1
  14    8    9 1
  15    8  229 1
  16    9   10 1
  17    9  230 1
  18    9  231 1
  19   10   11 1
  20   10  232 1
  21   10  233 1
  22   11  234 1
  23   11  235 1
  24   12   13 2
  25   12   15 1
  26   12   20 am
  27   14   15 1
  28   14  236 1
  29   15   16 1
  30   15  237 1
  31   16   17 1
  32   16  238 1
  33   16  239 1
  34   17  240 1
  35   18   19 2
  36   18   21 1
  37   18   28 am
  38   20   21 1
  39   20  241 1
  40   21   22 1
  41   21  242 1
  42   22   23 1
  43   22  243 1
  44   22  244 1
  45   23   24 1
  46   23   25 1
  47   23  245 1
  48   24  246 1
  49   24  247 1
  50   24  248 1
  51   25  249 1
  52   25  250 1
  53   25  251 1
  54   26   27 2
  55   26   35 am
  56   26   29 1
  57   28   29 1
  58   28   32 1
  59   29   30 1
  60   29  252 1
  61   30   31 1
  62   30  253 1
  63   30  254 1
  64   31   32 1
  65   31  255 1
  66   31  256 1
  67   32  257 1
  68   32  258 1
  69   33   34 2
  70   33   36 1
  71   33   49 am
  72   35   36 1
  73   35  259 1
  74   36   37 1
  75   36  260 1
  76   37   38 1
  77   37  261 1
  78   37  262 1
  79   38   39 2
  80   38   46 1
  81   39   40 1
  82   39  263 1
  83   40   41 1
  84   40  264 1
  85   41   42 ar
  86   41   46 ar
  87   42   43 ar
  88   42  265 1
  89   43   44 ar
  90   43  266 1
  91   44   45 ar
  92   44  267 1
  93   45   46 ar
  94   45  268 1
  95   47   48 2
  96   47   50 1
  97   47   61 am
  98   49   50 1
  99   49  269 1
 100   50   51 1
 101   50  270 1
 102   51   52 1
 103   51  271 1
 104   51  272 1
 105   52   53 ar
 106   52   58 ar
 107   53   54 ar
 108   53  273 1
 109   54   55 ar
 110   54  274 1
 111   55   56 1
 112   55   57 ar
 113   56  275 1
 114   57   58 ar
 115   57  276 1
 116   58  277 1
 117   59   60 2
 118   59   68 am
 119   59   62 1
 120   61   62 1
 121   61   65 1
 122   62   63 1
 123   62  278 1
 124   63   64 1
 125   63  279 1
 126   63  280 1
 127   64   65 1
 128   64  281 1
 129   64  282 1
 130   65  283 1
 131   65  284 1
 132   66   67 2
 133   66   69 1
 134   66   72 am
 135   68   69 1
 136   68  285 1
 137   69  286 1
 138   69  287 1
 139   70   71 2
 140   70   73 1
 141   70   81 am
 142   72   73 1
 143   72  288 1
 144   73   74 1
 145   73  289 1
 146   74   75 1
 147   74  290 1
 148   74  291 1
 149   75   76 1
 150   75  292 1
 151   75  293 1
 152   76   77 2
 153   76   78 1
 154   78  294 1
 155   79   80 2
 156   79   82 1
 157   79   89 am
 158   81   82 1
 159   81  295 1
 160   82   83 1
 161   82  296 1
 162   83   84 1
 163   83  297 1
 164   83  298 1
 165   84   85 1
 166   84   86 1
 167   84  299 1
 168   85  300 1
 169   85  301 1
 170   85  302 1
 171   86  303 1
 172   86  304 1
 173   86  305 1
 174   87   88 2
 175   87   90 1
 176   87   94 am
 177   89   90 1
 178   89  306 1
 179   90   91 1
 180   90  307 1
 181   91  308 1
 182   91  309 1
 183   91  310 1
 184   92   93 2
 185   92  101 am
 186   92   95 1
 187   94   95 1
 188   94   98 1
 189   95   96 1
 190   95  311 1
 191   96   97 1
 192   96  312 1
 193   96  313 1
 194   97   98 1
 195   97  314 1
 196   97  315 1
 197   98  316 1
 198   98  317 1
 199   99  100 2
 200   99  102 1
 201   99  108 am
 202  101  102 1
 203  101  318 1
 204  102  103 1
 205  102  319 1
 206  103  104 1
 207  103  105 1
 208  103  320 1
 209  104  321 1
 210  104  322 1
 211  104  323 1
 212  105  324 1
 213  105  325 1
 214  105  326 1
 215  106  107 2
 216  106  109 1
 217  106  117 am
 218  108  109 1
 219  108  327 1
 220  109  110 1
 221  109  328 1
 222  110  111 1
 223  110  329 1
 224  110  330 1
 225  111  112 1
 226  111  331 1
 227  111  332 1
 228  112  113 2
 229  112  114 1
 230  114  333 1
 231  115  116 2
 232  115  118 1
 233  115  126 am
 234  117  118 1
 235  117  334 1
 236  118  119 1
 237  118  335 1
 238  119  120 1
 239  119  336 1
 240  119  337 1
 241  120  121 1
 242  120  338 1
 243  120  339 1
 244  121  122 2
 245  121  123 1
 246  123  340 1
 247  124  125 2
 248  124  127 1
 249  124  134 am
 250  126  127 1
 251  126  341 1
 252  127  128 1
 253  127  342 1
 254  128  129 1
 255  128  343 1
 256  128  344 1
 257  129  130 1
 258  129  131 1
 259  129  345 1
 260  130  346 1
 261  130  347 1
 262  130  348 1
 263  131  349 1
 264  131  350 1
 265  131  351 1
 266  132  133 2
 267  132  135 1
 268  132  143 am
 269  134  135 1
 270  134  352 1
 271  135  136 1
 272  135  353 1
 273  136  137 1
 274  136  354 1
 275  136  355 1
 276  137  138 1
 277  137  356 1
 278  137  357 1
 279  138  139 2
 280  138  140 1
 281  140  358 1
 282  141  142 2
 283  141  144 1
 284  141  154 am
 285  143  144 1
 286  143  359 1
 287  144  145 1
 288  144  360 1
 289  145  146 1
 290  145  361 1
 291  145  362 1
 292  146  147 1
 293  146  363 1
 294  146  364 1
 295  147  148 1
 296  147  365 1
 297  147  366 1
 298  148  149 1
 299  148  367 1
 300  149  150 2
 301  149  151 1
 302  150  368 1
 303  151  369 1
 304  151  370 1
 305  152  153 2
 306  152  155 1
 307  152  165 am
 308  154  155 1
 309  154  371 1
 310  155  156 1
 311  155  372 1
 312  156  157 1
 313  156  373 1
 314  156  374 1
 315  157  158 ar
 316  157  162 ar
 317  158  159 ar
 318  158  375 1
 319  159  160 ar
 320  159  376 1
 321  160  161 ar
 322  160  377 1
 323  161  162 ar
 324  161  378 1
 325  162  379 1
 326  163  164 2
 327  163  166 1
 328  163  173 am
 329  165  166 1
 330  165  380 1
 331  166  167 1
 332  166  381 1
 333  167  168 1
 334  167  382 1
 335  167  383 1
 336  168  169 2
 337  168  170 am
 338  170  384 1
 339  170  385 1
 340  171  172 2
 341  171  174 1
 342  171  181 am
 343  173  174 1
 344  173  386 1
 345  174  175 1
 346  174  387 1
 347  175  176 1
 348  175  388 1
 349  175  389 1
 350  176  177 2
 351  176  178 am
 352  178  390 1
 353  178  391 1
 354  179  180 2
 355  179  182 1
 356  179  189 am
 357  181  182 1
 358  181  392 1
 359  182  183 1
 360  182  393 1
 361  183  184 1
 362  183  186 1
 363  183  394 1
 364  184  185 1
 365  184  395 1
 366  184  396 1
 367  185  397 1
 368  185  398 1
 369  185  399 1
 370  186  400 1
 371  186  401 1
 372  186  402 1
 373  187  188 2
 374  187  190 1
 375  187  197 am
 376  189  190 1
 377  189  403 1
 378  190  191 1
 379  190  404 1
 380  191  192 1
 381  191  405 1
 382  191  406 1
 383  192  193 1
 384  192  194 1
 385  192  407 1
 386  193  408 1
 387  193  409 1
 388  193  410 1
 389  194  411 1
 390  194  412 1
 391  194  413 1
 392  195  196 2
 393  195  198 1
 394  195  205 am
 395  197  198 1
 396  197  414 1
 397  198  199 1
 398  198  415 1
 399  199  200 1
 400  199  416 1
 401  199  417 1
 402  200  201 1
 403  200  202 1
 404  200  418 1
 405  201  419 1
 406  201  420 1
 407  201  421 1
 408  202  422 1
 409  202  423 1
 410  202  424 1
 411  203  204 2
 412  203  206 1
 413  203  214 am
 414  205  206 1
 415  205  425 1
 416  206  207 1
 417  206  426 1
 418  207  208 1
 419  207  427 1
 420  207  428 1
 421  208  209 1
 422  208  429 1
 423  208  430 1
 424  209  210 2
 425  209  211 am
 426  211  431 1
 427  211  432 1
 428  212  213 2
 429  212  215 1
 430  212  224 1
 431  214  215 1
 432  214  433 1
 433  215  216 1
 434  215  434 1
 435  216  217 1
 436  216  435 1
 437  216  436 1
 438  217  218 ar
 439  217  223 ar
 440  218  219 ar
 441  218  437 1
 442  219  220 ar
 443  219  438 1
 444  220  221 1
 445  220  222 ar
 446  221  439 1
 447  222  223 ar
 448  222  440 1
 449  223  441 1
 450  224  442 1

#	End of record

