#	Name: ASD01918004
#	Creating user name:	WinNT
#	Creation time:	15. 06. 2019 20:10

#	Modifying user name:	WinNT
#	Modification time:	15. 06. 2019 20:10

#	Program:	/corina/corina34_cracker 3.40 0067  02.08.2006

@<TRIPOS>MOLECULE
ASD01918004
  46   49    0    0    0
SMALL
NO_CHARGES


@<TRIPOS>ATOM
   1 N1             4.8259    -0.4051    -2.1384 N.ar    
   2 C2             5.2919     0.2905    -3.1564 C.ar    
   3 C3             5.1768     1.6733    -3.1846 C.ar    
   4 C4             4.5605     2.3225    -2.1213 C.ar    
   5 C5             4.0817     1.5530    -1.0664 C.ar    
   6 C6             4.2355     0.1746    -1.1121 C.ar    
   7 O7             3.4724     2.1431    -0.0048 O.3     
   8 C8             3.4499     3.5024     0.0442 C.2     
   9 N9             2.1932     5.5150    -0.0223 N.pl3   
  10 C10            2.2668     4.1545    -0.0656 C.2     
  11 C11            4.6494     4.2063     0.2133 C.2     
  12 C12            4.6211     5.5944     0.2632 C.2     
  13 C13            3.3266     6.2694     0.1359 C.2     
  14 C14            5.8607     6.3681     0.4402 C.2     
  15 N15            5.8142     7.7142     0.4864 N.am    
  16 C16            6.9700     8.4422     0.7591 C.ar    
  17 N17            8.1312     7.8134     0.8646 N.ar    
  18 C18            6.8943     9.8207     0.9121 C.ar    
  19 C19            8.0495    10.5357     1.1832 C.ar    
  20 C20            9.2457     9.8451     1.2925 C.ar    
  21 C21            9.2518     8.4673     1.1227 C.ar    
  22 O22            6.9272     5.7925     0.5448 O.2     
  23 C23            1.1425     6.3894    -0.1087 C.2     
  24 C24            1.6522     7.6355    -0.0087 C.2     
  25 N25            2.9772     7.5430     0.1441 N.2     
  26 O26            5.6607     2.3832    -4.2377 O.3     
  27 O27           10.4196     7.7841     1.2225 O.3     
  28 C28            6.2805     1.6415    -5.2902 C.3     
  29 C29           10.3608     6.3683     1.0378 C.3     
  30 H30            5.7693    -0.2219    -3.9785 H       
  31 H31            4.4564     3.3974    -2.1143 H       
  32 H32            3.8667    -0.4306    -0.2972 H       
  33 H33            1.3597     3.5819    -0.1909 H       
  34 H34            5.5857     3.6757     0.3041 H       
  35 H35            4.9758     8.1762     0.3296 H       
  36 H36            5.9459    10.3292     0.8204 H       
  37 H37            8.0185    11.6083     1.3064 H       
  38 H38           10.1639    10.3734     1.5032 H       
  39 H39            0.1019     6.1307    -0.2378 H       
  40 H40            1.0839     8.5533    -0.0403 H       
  41 H41            7.1324     1.0896    -4.8928 H       
  42 H42            5.5604     0.9420    -5.7146 H       
  43 H43            6.6217     2.3272    -6.0658 H       
  44 H44            9.7008     5.9312     1.7872 H       
  45 H45            9.9765     6.1474     0.0420 H       
  46 H46           11.3602     5.9462     1.1434 H       
@<TRIPOS>BOND
   1    1    2 ar
   2    1    6 ar
   3    2    3 ar
   4    2   30 1
   5    3    4 ar
   6    3   26 1
   7    4    5 ar
   8    4   31 1
   9    5    6 ar
  10    5    7 1
  11    6   32 1
  12    7    8 1
  13    8   11 1
  14    8   10 2
  15    9   10 1
  16    9   23 1
  17    9   13 1
  18   10   33 1
  19   11   12 2
  20   11   34 1
  21   12   13 1
  22   12   14 1
  23   13   25 2
  24   14   15 am
  25   14   22 2
  26   15   16 1
  27   15   35 1
  28   16   18 ar
  29   16   17 ar
  30   17   21 ar
  31   18   19 ar
  32   18   36 1
  33   19   20 ar
  34   19   37 1
  35   20   21 ar
  36   20   38 1
  37   21   27 1
  38   23   24 2
  39   23   39 1
  40   24   25 1
  41   24   40 1
  42   26   28 1
  43   27   29 1
  44   28   41 1
  45   28   42 1
  46   28   43 1
  47   29   44 1
  48   29   45 1
  49   29   46 1

#	End of record

