#	Name: ASD06560001
#	Creating user name:	WinNT
#	Creation time:	15. 06. 2019 21:06

#	Modifying user name:	WinNT
#	Modification time:	15. 06. 2019 21:06

#	Program:	/corina/corina34_cracker 3.40 0067  02.08.2006

@<TRIPOS>MOLECULE
ASD06560001
  51   55    0    0    0
SMALL
NO_CHARGES


@<TRIPOS>ATOM
   1 C1            -0.0168     1.3874     0.0097 C.ar    
   2 C2             0.0021    -0.0041     0.0020 C.ar    
   3 C3             1.1800    -0.6906    -0.0125 C.ar    
   4 C4             2.3918     0.0141    -0.0203 C.ar    
   5 C5             2.3699     1.4309    -0.0130 C.ar    
   6 C6             1.1444     2.1041     0.0024 C.ar    
   7 N7             3.5758    -0.6132    -0.0341 N.ar    
   8 C8             4.6991     0.0797    -0.0408 C.ar    
   9 N9             4.7243     1.4112    -0.0343 N.ar    
  10 C10            3.6074     2.1226    -0.0207 C.ar    
  11 C11            5.9870    -0.6552    -0.0556 C.ar    
  12 C12            5.9971    -2.0491    -0.0622 C.ar    
  13 C13            7.1987    -2.7276    -0.0764 C.ar    
  14 C14            8.3915    -2.0272    -0.0842 C.ar    
  15 C15            8.3876    -0.6439    -0.0772 C.ar    
  16 C16            7.1920     0.0453    -0.0687 C.ar    
  17 N17            3.6470     3.5007    -0.0146 N.pl3   
  18 C18            4.9362     4.1965    -0.0232 C.3     
  19 C19            5.4240     4.3328    -1.4425 C.ar    
  20 C20            4.7723     5.5654     0.5853 C.ar    
  21 C21            6.7634     4.1530    -1.7333 C.ar    
  22 C22            7.2109     4.2780    -3.0353 C.ar    
  23 C23            6.3188     4.5824    -4.0465 C.ar    
  24 C24            4.9793     4.7613    -3.7558 C.ar    
  25 C25            4.5311     4.6320    -2.4545 C.ar    
  26 C26            5.7492     6.0713     1.4223 C.ar    
  27 C27            5.5989     7.3269     1.9804 C.ar    
  28 C28            4.4718     8.0770     1.7012 C.ar    
  29 C29            3.4952     7.5715     0.8635 C.ar    
  30 C30            3.6477     6.3176     0.3019 C.ar    
  31 H31           -0.9635     1.9071     0.0170 H       
  32 H32           -0.9306    -0.5485     0.0080 H       
  33 H33            1.1795    -1.7706    -0.0176 H       
  34 H34            1.1170     3.1838     0.0078 H       
  35 H35            5.0664    -2.5969    -0.0558 H       
  36 H36            7.2078    -3.8076    -0.0812 H       
  37 H37            9.3295    -2.5624    -0.0953 H       
  38 H38            9.3220    -0.1023    -0.0825 H       
  39 H39            7.1902     1.1253    -0.0637 H       
  40 H40            2.8213     4.0096    -0.0045 H       
  41 H41            5.6612     3.6255     0.5569 H       
  42 H42            7.4603     3.9152    -0.9433 H       
  43 H43            8.2574     4.1383    -3.2623 H       
  44 H44            6.6685     4.6808    -5.0635 H       
  45 H45            4.2824     4.9994    -4.5458 H       
  46 H46            3.4846     4.7717    -2.2274 H       
  47 H47            6.6298     5.4853     1.6405 H       
  48 H48            6.3618     7.7218     2.6350 H       
  49 H49            4.3539     9.0577     2.1379 H       
  50 H50            2.6145     8.1574     0.6456 H       
  51 H51            2.8848     5.9227    -0.3527 H       
@<TRIPOS>BOND
   1    1    2 ar
   2    1    6 ar
   3    1   31 1
   4    2    3 ar
   5    2   32 1
   6    3    4 ar
   7    3   33 1
   8    4    5 ar
   9    4    7 ar
  10    5    6 ar
  11    5   10 ar
  12    6   34 1
  13    7    8 ar
  14    8    9 ar
  15    8   11 1
  16    9   10 ar
  17   10   17 1
  18   11   12 ar
  19   11   16 ar
  20   12   13 ar
  21   12   35 1
  22   13   14 ar
  23   13   36 1
  24   14   15 ar
  25   14   37 1
  26   15   16 ar
  27   15   38 1
  28   16   39 1
  29   17   18 1
  30   17   40 1
  31   18   19 1
  32   18   20 1
  33   18   41 1
  34   19   21 ar
  35   19   25 ar
  36   20   26 ar
  37   20   30 ar
  38   21   22 ar
  39   21   42 1
  40   22   23 ar
  41   22   43 1
  42   23   24 ar
  43   23   44 1
  44   24   25 ar
  45   24   45 1
  46   25   46 1
  47   26   27 ar
  48   26   47 1
  49   27   28 ar
  50   27   48 1
  51   28   29 ar
  52   28   49 1
  53   29   30 ar
  54   29   50 1
  55   30   51 1

#	End of record

