#	Name: ASD02039403
#	Creating user name:	WinNT
#	Creation time:	15. 06. 2019 20:18

#	Modifying user name:	WinNT
#	Modification time:	15. 06. 2019 20:18

#	Program:	/corina/corina34_cracker 3.40 0067  02.08.2006

@<TRIPOS>MOLECULE
ASD02039403
  47   49    0    0    0
SMALL
NO_CHARGES


@<TRIPOS>ATOM
   1 C1            -0.1504     1.4884    -0.1015 C.ar    
   2 C2            -0.1484     0.1036    -0.0133 C.ar    
   3 C3             1.1363     2.2678    -0.0129 C.3     
   4 N4             1.7695     2.3168    -1.3330 N.am    
   5 C5             1.3310     3.3072    -2.3195 C.3     
   6 C6             2.7555     1.4507    -1.6401 C.2     
   7 C7             3.1365     0.3985    -0.6819 C.2     
   8 C8             4.1538    -0.4981    -0.8312 C.2     
   9 N9             2.5430     0.1483     0.5131 N.2     
  10 C10            3.1489    -0.8534     1.0825 C.2     
  11 N11            4.1545    -1.2792     0.2745 N.pl3   
  12 O12            3.3307     1.5379    -2.7082 O.2     
  13 C13            5.0742    -2.3858     0.5499 C.3     
  14 C14            2.4786     4.2748    -2.6155 C.3     
  15 C15            0.9192     2.5946    -3.6093 C.3     
  16 C16           -1.3456    -0.5831    -0.0982 C.ar    
  17 N17           -2.4840     0.0597    -0.2612 N.ar    
  18 C18           -2.5291     1.3829    -0.3501 C.ar    
  19 C19           -1.3601     2.1375    -0.2785 C.ar    
  20 C20           -3.8338     2.0636    -0.5334 C.ar    
  21 C21           -3.8816     3.4416    -0.7357 C.ar    
  22 C22           -5.0183     1.3259    -0.5098 C.ar    
  23 C23           -6.2317     1.9666    -0.6819 C.ar    
  24 C24           -6.2720     3.3345    -0.8768 C.ar    
  25 C25           -5.0992     4.0703    -0.9063 C.ar    
  26 Cl26          -5.1603     5.7878    -1.1511 Cl      
  27 F27           -4.9796    -0.0111    -0.3198 F       
  28 H28            0.7795    -0.4328     0.1200 H       
  29 H29            0.9243     3.2818     0.3263 H       
  30 H30            1.8079     1.7811     0.6944 H       
  31 H31            0.4806     3.8623    -1.9236 H       
  32 H32            4.8290    -0.5711    -1.6710 H       
  33 H33            2.8950    -1.2757     2.0435 H       
  34 H34            4.6555    -3.3125     0.1576 H       
  35 H35            6.0333    -2.1889     0.0708 H       
  36 H36            5.2182    -2.4792     1.6263 H       
  37 H37            3.2949     3.7346    -3.0948 H       
  38 H38            2.1261     5.0642    -3.2794 H       
  39 H39            2.8322     4.7152    -1.6832 H       
  40 H40            0.1673     1.8387    -3.3826 H       
  41 H41            0.5051     3.3205    -4.3091 H       
  42 H42            1.7917     2.1170    -4.0550 H       
  43 H43           -1.3474    -1.6609    -0.0303 H       
  44 H44           -1.3982     3.2144    -0.3510 H       
  45 H45           -2.9679     4.0170    -0.7586 H       
  46 H46           -7.1492     1.3973    -0.6642 H       
  47 H47           -7.2218     3.8309    -1.0111 H       
@<TRIPOS>BOND
   1    1    2 ar
   2    1    3 1
   3    1   19 ar
   4    2   16 ar
   5    2   28 1
   6    3    4 1
   7    3   29 1
   8    3   30 1
   9    4    5 1
  10    4    6 am
  11    5   14 1
  12    5   15 1
  13    5   31 1
  14    6    7 1
  15    6   12 2
  16    7    8 2
  17    7    9 1
  18    8   11 1
  19    8   32 1
  20    9   10 2
  21   10   11 1
  22   10   33 1
  23   11   13 1
  24   13   34 1
  25   13   35 1
  26   13   36 1
  27   14   37 1
  28   14   38 1
  29   14   39 1
  30   15   40 1
  31   15   41 1
  32   15   42 1
  33   16   17 ar
  34   16   43 1
  35   17   18 ar
  36   18   19 ar
  37   18   20 1
  38   19   44 1
  39   20   21 ar
  40   20   22 ar
  41   21   25 ar
  42   21   45 1
  43   22   23 ar
  44   22   27 1
  45   23   24 ar
  46   23   46 1
  47   24   25 ar
  48   24   47 1
  49   25   26 1

#	End of record

