#	Name: ASD01882828
#	Creating user name:	WinNT
#	Creation time:	15. 06. 2019 19:45

#	Modifying user name:	WinNT
#	Modification time:	15. 06. 2019 19:45

#	Program:	/corina/corina34_cracker 3.40 0067  02.08.2006

@<TRIPOS>MOLECULE
ASD01882828
  45   46    0    0    0
SMALL
NO_CHARGES


@<TRIPOS>ATOM
   1 O1             1.7213     4.8673    -2.5232 O.3     
   2 C2             1.5431     3.5850    -1.9181 C.3     
   3 C3             2.9225     4.2230    -2.0941 C.3     
   4 C4             1.1790     2.4111    -2.8294 C.3     
   5 O5            -0.1158     1.9191    -2.4780 O.3     
   6 C6            -0.5925     0.8686    -3.1965 C.ar    
   7 C7            -1.8427     0.3404    -2.9089 C.ar    
   8 C8            -2.3250    -0.7274    -3.6407 C.ar    
   9 C9            -1.5629    -1.2697    -4.6589 C.ar    
  10 C10           -0.3164    -0.7454    -4.9472 C.ar    
  11 C11            0.1678     0.3264    -4.2224 C.ar    
  12 C12           -2.0915    -2.4346    -5.4556 C.3     
  13 C13           -1.0613    -2.8395    -6.5119 C.3     
  14 C14           -1.4739    -4.1709    -7.1426 C.3     
  15 C15           -2.9840    -4.1726    -7.3884 C.3     
  16 C16           -0.7405    -4.3541    -8.4729 C.3     
  17 C17           -1.1097    -5.3176    -6.1974 C.3     
  18 C18           -2.3532    -3.6160    -4.5193 C.3     
  19 C19           -3.3967    -2.0310    -6.1445 C.3     
  20 H20            1.1234     3.5518    -0.9127 H       
  21 H21            3.5790     3.8103    -2.8601 H       
  22 H22            3.4187     4.6133    -1.2055 H       
  23 H23            1.1714     2.7453    -3.8669 H       
  24 H24            1.9148     1.6160    -2.7091 H       
  25 H25           -2.4382     0.7635    -2.1135 H       
  26 H26           -3.2980    -1.1392    -3.4170 H       
  27 H27            0.2773    -1.1712    -5.7425 H       
  28 H28            1.1395     0.7387    -4.4511 H       
  29 H29           -1.0116    -2.0716    -7.2840 H       
  30 H30           -0.0832    -2.9471    -6.0430 H       
  31 H31           -3.2742    -3.2407    -7.8735 H       
  32 H32           -3.2467    -5.0135    -8.0303 H       
  33 H33           -3.5070    -4.2650    -6.4365 H       
  34 H34            0.3354    -4.3529    -8.2978 H       
  35 H35           -1.0344    -5.3027    -8.9222 H       
  36 H36           -0.9999    -3.5372    -9.1463 H       
  37 H37           -2.0049    -5.6570    -5.6762 H       
  38 H38           -0.6891    -6.1427    -6.7722 H       
  39 H39           -0.3758    -4.9700    -5.4703 H       
  40 H40           -2.5626    -3.2450    -3.5160 H       
  41 H41           -3.2093    -4.1847    -4.8824 H       
  42 H42           -1.4742    -4.2600    -4.4925 H       
  43 H43           -3.1728    -1.4091    -7.0113 H       
  44 H44           -3.9291    -2.9257    -6.4670 H       
  45 H45           -4.0179    -1.4704    -5.4460 H       
@<TRIPOS>BOND
   1    1    2 1
   2    1    3 1
   3    2    3 1
   4    2    4 1
   5    2   20 1
   6    3   21 1
   7    3   22 1
   8    4    5 1
   9    4   23 1
  10    4   24 1
  11    5    6 1
  12    6    7 ar
  13    6   11 ar
  14    7    8 ar
  15    7   25 1
  16    8    9 ar
  17    8   26 1
  18    9   10 ar
  19    9   12 1
  20   10   11 ar
  21   10   27 1
  22   11   28 1
  23   12   13 1
  24   12   18 1
  25   12   19 1
  26   13   14 1
  27   13   29 1
  28   13   30 1
  29   14   15 1
  30   14   16 1
  31   14   17 1
  32   15   31 1
  33   15   32 1
  34   15   33 1
  35   16   34 1
  36   16   35 1
  37   16   36 1
  38   17   37 1
  39   17   38 1
  40   17   39 1
  41   18   40 1
  42   18   41 1
  43   18   42 1
  44   19   43 1
  45   19   44 1
  46   19   45 1

#	End of record

