#	Name: ASD09740709
#	Creating user name:	WinNT
#	Creation time:	15. 06. 2019 21:23

#	Modifying user name:	WinNT
#	Modification time:	15. 06. 2019 21:23

#	Program:	/corina/corina34_cracker 3.40 0067  02.08.2006

@<TRIPOS>MOLECULE
ASD09740709
  68   71    0    0    0
SMALL
NO_CHARGES


@<TRIPOS>ATOM
   1 C1            -2.0761    -0.7196     2.1265 C.1     
   2 C2            -1.8072     0.6265     1.7186 C.ar    
   3 C3            -0.4934     1.1179     1.7350 C.ar    
   4 C4            -0.2357     2.4221     1.3389 C.ar    
   5 C5            -1.2670     3.2399     0.9286 C.ar    
   6 C6            -2.5800     2.7611     0.9085 C.ar    
   7 C7            -2.8495     1.4517     1.2981 C.ar    
   8 N8            -2.2894    -1.7874     2.4501 N.1     
   9 O9             0.5254     0.3176     2.1388 O.3     
  10 C10            1.8178     0.9177     2.2478 C.3     
  11 C11            2.6463     0.1591     3.2865 C.3     
  12 C12            2.5231     0.8594     0.8913 C.3     
  13 S13           -5.3868     3.2048     0.3827 S.3     
  14 C14           -5.7694     4.8219    -0.2016 C.2     
  15 N15           -4.6719     5.5199    -0.2834 N.2     
  16 C16           -3.5573     4.9260     0.0627 C.2     
  17 C17           -3.6818     3.6430     0.4685 C.2     
  18 C18           -8.4921     8.5087    -1.7844 C.3     
  19 C19           -7.0071     8.7503    -2.1286 C.3     
  20 C20           -6.2881     7.7246    -1.2267 C.3     
  21 C21           -7.2979     6.6201    -1.0009 C.ar    
  22 C22           -7.1213     5.3098    -0.5456 C.ar    
  23 C23           -8.2226     4.4637    -0.4169 C.ar    
  24 C24           -9.4821     4.9250    -0.7402 C.ar    
  25 C25           -9.6514     6.2210    -1.1898 C.ar    
  26 C26           -8.5622     7.0692    -1.3207 C.ar    
  27 O27           -8.9078     9.3877    -0.7373 O.3     
  28 Si28          -9.6931    10.7181    -1.2605 Si      
  29 C29           -8.6325    11.6180    -2.4999 C.3     
  30 C30          -11.2973    10.2165    -2.0640 C.3     
  31 C31          -10.0464    11.8393     0.1848 C.3     
  32 C32           -8.7289    12.2512     0.8447 C.3     
  33 C33          -10.7830    13.0872    -0.3060 C.3     
  34 C34          -10.9174    11.1002     1.2026 C.3     
  35 H35            0.7765     2.7984     1.3523 H       
  36 H36           -1.0596     4.2544     0.6217 H       
  37 H37           -3.8626     1.0782     1.2792 H       
  38 H38            1.7107     1.9573     2.5572 H       
  39 H39            2.7534    -0.8805     2.9771 H       
  40 H40            3.6321     0.6169     3.3696 H       
  41 H41            2.1438     0.2007     4.2529 H       
  42 H42            1.9328     1.3998     0.1513 H       
  43 H43            3.5089     1.3171     0.9745 H       
  44 H44            2.6302    -0.1803     0.5819 H       
  45 H45           -2.6019     5.4283     0.0263 H       
  46 H46           -9.1134     8.6519    -2.6685 H       
  47 H47           -6.8144     8.5430    -3.1812 H       
  48 H48           -6.7102     9.7673    -1.8721 H       
  49 H49           -5.4044     7.3323    -1.7299 H       
  50 H50           -6.0113     8.1839    -0.2777 H       
  51 H51           -8.0900     3.4510    -0.0659 H       
  52 H52          -10.3370     4.2724    -0.6421 H       
  53 H53          -10.6398     6.5759    -1.4415 H       
  54 H54           -8.4258    10.9620    -3.3455 H       
  55 H55           -9.1573    12.5071    -2.8495 H       
  56 H56           -7.6939    11.9115    -2.0297 H       
  57 H57          -11.9506     9.7627    -1.3188 H       
  58 H58          -11.7832    11.0964    -2.4856 H       
  59 H59          -11.0967     9.4969    -2.8578 H       
  60 H60           -8.1084    12.7777     0.1196 H       
  61 H61           -8.9357    12.9072     1.6903 H       
  62 H62           -8.2041    11.3621     1.1944 H       
  63 H63          -11.7216    12.7937    -0.7761 H       
  64 H64          -10.9898    13.7432     0.5396 H       
  65 H65          -10.1625    13.6138    -1.0311 H       
  66 H66          -10.3926    10.2111     1.5523 H       
  67 H67          -11.1241    11.7561     2.0482 H       
  68 H68          -11.8560    10.8067     0.7325 H       
@<TRIPOS>BOND
   1    1    2 1
   2    1    8 3
   3    2    3 ar
   4    2    7 ar
   5    3    4 ar
   6    3    9 1
   7    4    5 ar
   8    4   35 1
   9    5    6 ar
  10    5   36 1
  11    6    7 ar
  12    6   17 1
  13    7   37 1
  14    9   10 1
  15   10   11 1
  16   10   12 1
  17   10   38 1
  18   11   39 1
  19   11   40 1
  20   11   41 1
  21   12   42 1
  22   12   43 1
  23   12   44 1
  24   13   14 1
  25   13   17 1
  26   14   15 2
  27   14   22 1
  28   15   16 1
  29   16   17 2
  30   16   45 1
  31   18   19 1
  32   18   26 1
  33   18   27 1
  34   18   46 1
  35   19   20 1
  36   19   47 1
  37   19   48 1
  38   20   21 1
  39   20   49 1
  40   20   50 1
  41   21   22 ar
  42   21   26 ar
  43   22   23 ar
  44   23   24 ar
  45   23   51 1
  46   24   25 ar
  47   24   52 1
  48   25   26 ar
  49   25   53 1
  50   27   28 1
  51   28   29 1
  52   28   30 1
  53   28   31 1
  54   29   54 1
  55   29   55 1
  56   29   56 1
  57   30   57 1
  58   30   58 1
  59   30   59 1
  60   31   32 1
  61   31   34 1
  62   31   33 1
  63   32   60 1
  64   32   61 1
  65   32   62 1
  66   33   63 1
  67   33   64 1
  68   33   65 1
  69   34   66 1
  70   34   67 1
  71   34   68 1

#	End of record

