#	Name: ASD01890329
#	Creating user name:	WinNT
#	Creation time:	15. 06. 2019 19:50

#	Modifying user name:	WinNT
#	Modification time:	15. 06. 2019 19:50

#	Program:	/corina/corina34_cracker 3.40 0067  02.08.2006

@<TRIPOS>MOLECULE
ASD01890329
  27   29    0    0    0
SMALL
NO_CHARGES


@<TRIPOS>ATOM
   1 O1            -0.0221     1.3464    -0.0806 O.3     
   2 C2            -0.0002    -0.0019    -0.0320 C.2     
   3 C3             1.2882    -0.4399    -0.0267 C.2     
   4 C4             2.1232     0.7586    -0.0767 C.ar    
   5 C5             1.2291     1.8460    -0.1087 C.ar    
   6 C6             3.5019     0.9845    -0.0961 C.ar    
   7 C7             3.9779     2.2654    -0.1462 C.ar    
   8 C8             3.0998     3.3413    -0.1779 C.ar    
   9 C9             1.7364     3.1388    -0.1595 C.ar    
  10 Cl10           5.6904     2.5489    -0.1697 Cl      
  11 C11           -1.1863    -0.8652     0.0092 C.2     
  12 C12           -2.5321    -0.2668     0.1368 C.ar    
  13 C13           -3.6695    -1.0711     0.0395 C.ar    
  14 C14           -4.9221    -0.5062     0.1595 C.ar    
  15 C15           -5.0532     0.8544     0.3754 C.ar    
  16 C16           -3.9303     1.6573     0.4729 C.ar    
  17 C17           -2.6715     1.1045     0.3610 C.ar    
  18 O18           -1.0620    -2.0736    -0.0616 O.2     
  19 H19            1.6254    -1.4654     0.0076 H       
  20 H20            4.1885     0.1512    -0.0712 H       
  21 H21            3.4896     4.3477    -0.2174 H       
  22 H22            1.0636     3.9833    -0.1842 H       
  23 H23           -3.5686    -2.1330    -0.1297 H       
  24 H24           -5.8026    -1.1271     0.0844 H       
  25 H25           -6.0363     1.2917     0.4679 H       
  26 H26           -4.0397     2.7184     0.6414 H       
  27 H27           -1.7959     1.7315     0.4417 H       
@<TRIPOS>BOND
   1    1    2 1
   2    1    5 1
   3    2    3 2
   4    2   11 1
   5    3    4 1
   6    3   19 1
   7    4    5 ar
   8    4    6 ar
   9    5    9 ar
  10    6    7 ar
  11    6   20 1
  12    7    8 ar
  13    7   10 1
  14    8    9 ar
  15    8   21 1
  16    9   22 1
  17   11   12 1
  18   11   18 2
  19   12   13 ar
  20   12   17 ar
  21   13   14 ar
  22   13   23 1
  23   14   15 ar
  24   14   24 1
  25   15   16 ar
  26   15   25 1
  27   16   17 ar
  28   16   26 1
  29   17   27 1

#	End of record

